     498
 i =      100, E =     -4656.8674500376
  H        10.4764976283        5.7597307828        7.6651304691
  C        10.4430403260        5.5278972515        6.6027048376
  O        10.3327435665        3.5362105787        8.4952901590
  C        10.3970835349        3.1378748612        7.2845853590
  C        10.4022168391        4.1924916110        6.2141614031
  C        10.4246819434        6.5837720417        5.6668604687
  C        10.3590061090        6.2588678555        4.2749581202
  C        10.3390939226        7.3008106299        3.2144191992
  O        10.3255368512        8.5351099060        3.5827670611
  H        10.3026614293        2.8257096651        4.5395919714
  C        10.3416740443        3.8684089868        4.8422002918
  O        10.4384300635        1.9091047625        6.9028050962
  H        10.2654494034        4.6684416856        2.8437319840
  C        10.3189353343        4.8941554086        3.9062337747
  O        10.3200457316        6.9206720304        1.9813153707
 Zr        10.3643536907        2.4702797417       10.4678298736
  O        11.6842252722        1.2991174746        9.1580676059
  O         9.2803769182        1.0902542082        9.2887065844
  O         9.0608753546        1.2881885708       11.7740278187
  O        11.4686689381        1.1028741548       11.6529758826
  H         7.4949706799        9.7639409857        5.7247074960
  C         6.4703626564       10.0669651598        5.5165869524
  O         8.4220269059       10.4554839603        3.5616705329
  C         7.2010145778       10.5021909876        3.1810029155
  C         6.1367578929       10.4760682841        4.2308241849
  C         5.5141139089       10.0205023167        6.5557682382
  C         4.1728746074       10.4241598211        6.2536888971
  C         3.1072950901       10.4264242361        7.2795887415
  O         3.4713350595       10.3307814556        8.5064501175
  H         4.5567897400       11.1584200571        2.9181957324
  C         4.8096405814       10.8484492263        3.9277292523
  O         6.8119517310       10.5571419455        1.9597675013
  H         2.8294625539       11.1109847094        4.7341883900
  C         3.8579565461       10.8195035067        4.9350789439
  O         1.8740706314       10.5063362787        6.8983574334
 Zr        10.3853968566       10.4761294598        2.4722839598
  H        13.2588926773       11.1912504241        5.7231579112
  C        14.2944164959       10.9299575820        5.5128385394
  O        12.3516364494       10.5193024345        3.5658489811
  C        13.5688555306       10.4708746536        3.1825737386
  C        14.6374123412       10.5324480720        4.2258041318
  C        15.2505717207       11.0018324685        6.5458717664
  C        16.6007089514       10.6416424923        6.2390672576
  C        17.6619720201       10.6160129536        7.2710373022
  O        17.2553046778       10.6194077185        8.5010599096
  H        16.2293819838        9.8969459520        2.9048935694
  C        15.9730668124       10.2046494817        3.9146880028
  O        13.9613863023       10.3911798721        1.9633794651
  H        17.9634911644       10.0016687611        4.7153422602
  C        16.9273628459       10.2635578375        4.9182534260
  O        18.8927859884       10.5555950858        6.9125916265
 Nb        10.4843499345        0.0882559508        8.1226269058
  O        10.3896752534        3.5431086005       12.4672430160
  O        10.4339382507       12.4351145074        3.5320588430
  O         8.4299453773        3.5447483755       10.4292350862
  O        12.2956910094        3.5461167814       10.5481613296
  O         8.5901396169        0.0681942159        6.9055064535
  O        12.3405691964       20.8871974233        6.9566249793
  O        10.5057331219       19.0318132251        6.9045143532
 Zr         2.4186617966       10.4508344439       10.4460106596
 Zr        18.2217510545       10.4540297719       10.4537023150
 Nb        10.4159179971        8.1093181736        0.1400624300
 Nb        10.2686269681        0.0756788945       12.7922673700
 Nb         0.0658530610       10.5418530000        8.0984456048
 Zr        12.8737372354       10.3717374746        0.0746976791
 Zr         7.9100442615       10.5573203868        0.0605347378
 Zr        12.8407531316        0.0626978839       10.4714463375
 Zr         7.8829232412        0.0532952541       10.4693620189
  O         9.0498874147       19.5470361720        9.0616823775
  O         9.1242232051       11.8340440564        1.2876520488
  O        11.6528852260        9.1087702214        1.3308892205
  O        11.4233957115       19.7953418839        9.4062850123
  O         9.2490693453        9.3361273693        1.1123171184
  O        11.5300977662       11.6046044516        1.0998749653
  H        10.0144228941       15.2094147215        7.5776237735
  C        10.1920481077       15.4388188319        6.5293220615
  O        10.4428804015       17.3617581042        8.4632576189
  C        10.4813587948       17.8000431893        7.2514830828
  C        10.4586282968       16.7571115558        6.1689822416
  C        10.1516909218       14.3915136603        5.5833297316
  C        10.4079121851       14.7074453888        4.2117565407
  C        10.4225230543       13.6640579390        3.1475963632
  H        10.8901522671       18.1046541088        4.5317831599
  C        10.6866746290       17.0749517672        4.8131597950
  H        10.8348780498       16.2726691412        2.8173018158
  C        10.6584947344       16.0555408431        3.8685866626
  O        10.4478201514       14.0377366145        1.9157319092
 Zr        10.3614736821       18.3211911576       10.4543433966
  H         8.5053340551       19.0647581682        8.4185339801
  H        12.2211630921       19.0598927410       12.5148694238
  O        11.6901664828       19.5412679973       11.8601633359
  O         9.3099622468       19.7872179133       11.5233217724
  O        10.2675807179       17.3537219781       12.4537028777
  O        12.3404622959       17.3407037057       10.4457205811
  O         8.4017922261       17.3411770393       10.4684861645
 Nb        10.3681378018       12.7901914791        0.0732594574
  H        10.0256294184        5.8013165213       13.4070433816
  C        10.1960131093        5.5192295991       14.4418028878
  C        10.3650054118        3.1254403932       13.6689352844
  C        10.3949029216        4.1595227536       14.7615796570
  H        10.0676039429        7.5150751654       15.2303317644
  C        10.2199243424        6.4626929768       15.4551923965
  C        10.4381206880        6.1159699477       16.8085868760
  C        10.4427756874        7.2085882840       17.8139992416
  O        10.4217905946        8.4199811135       17.3689383390
  H        10.7920817159        2.7384117314       16.3151361147
  C        10.6241386935        3.7888710259       16.0842064481
  O        10.3260900530        1.8896377400       14.0360349898
  C        10.6527540642        4.7400508847       17.1350028097
  O        10.4398729443        6.9005558691       19.0682439375
  H        13.3234603083        9.7673574734       15.1801445322
  C        14.3677972924        9.9812841381       15.3940712519
  O        12.4024801838       10.3293490464       17.3283048512
  C        13.6225885621       10.3314974656       17.7352312749
  C        14.7071892390       10.2852680368       16.7302814150
  H        15.0451634733        9.7173382567       13.3598385361
  C        15.3146158455        9.9564626559       14.3846533951
  C        16.6569844799       10.2443347483       14.7050769721
  C        17.6884761255       10.2928957244       13.6248914628
  O        17.2419370174       10.3355028539       12.4236490152
  C        16.0718061747       10.5613070774       17.0563052917
  O        13.9661791479       10.3891182704       18.9775486944
  H        18.0679559986       10.7418024858       16.2344930481
  C        17.0232520386       10.5288946183       16.0158357117
  O        18.9214550755       10.3292686467       13.9734192137
 Zr        10.4078982199       10.4064719465       18.3116290807
  H         7.4951499518        9.9727921589       15.1489465090
  C         6.4573671156       10.2197339533       15.3590696826
  O         8.4269931972       10.4513319971       17.2851406022
  C         7.2087878279       10.5467245126       17.6989075876
  C         6.1279239894       10.5521227576       16.6912700904
  H         5.7686694236        9.9416710231       13.3311560872
  C         5.5073392652       10.1920285488       14.3545070767
  C         4.1660566970       10.4836311296       14.6747408315
  C         3.1222133167       10.4517203385       13.6029935742
  O         3.5347341891       10.4586618288       12.3991241964
  C         4.7729333369       10.8748443593       17.0122148575
  O         6.8711652328       10.6176928968       18.9389788978
  H         2.7704374050       11.0350833196       16.1974946426
  C         3.8132394460       10.8144039745       15.9776133441
  O         1.8950858340       10.4373257836       13.9864712332
  O        10.3241950038       12.3945308201       17.3280974281
  O        12.1678698655        0.0517629097       14.0245721691
  O         8.4499850968       20.8878470876       13.9629896695
  O        10.2621560724       19.0191332728       14.0188893147
 Nb         0.0742487959       10.3513964365       12.7910160549
  O        11.7665379352       11.7889853976       19.5121731538
  O         9.0274185959        9.0972695134       19.5337227093
  O        11.4097774584        9.3518519763       19.8088981561
  O         9.3857984820       11.5344157445       19.7676946596
  H         9.5627605074       15.2281464089       13.3603272051
  C         9.8197489327       15.4424593543       14.3955474213
  C        10.2238897423       17.7900920088       13.6634590044
  C        10.1665291785       16.7441279682       14.7435409984
  C         9.8133818682       14.3869504275       15.3369236399
  C        10.2095555915       14.6781701868       16.6811102842
  C        10.3068616089       13.6269414523       17.7297582520
  H        10.7697034194       18.0618185468       16.3506362474
  C        10.5069350756       17.0426530397       16.0805760528
  H        10.8300365637       16.2117433567       18.0414582563
  C        10.5318017322       16.0143289888       17.0138744809
  O        10.3960140179       13.9890975557       18.9583417074
  C         5.6042307690        6.5911435726       10.7146052024
  O         3.5283521524        8.5263200503       10.4324335008
  C         3.1717638696        7.2896422636       10.4296198038
  C         4.2381364319        6.2676602541       10.4562915063
  H         7.5951464047        5.7594518960       10.8857669116
  C         6.5438305456        5.5432639446       10.7075758218
  C         6.1637140393        4.2279148829       10.4654484374
  C         7.2104499347        3.1683454396       10.4435223539
  H         2.8325989965        4.7170697086       10.0065363407
  C         3.8791800544        4.9245744067       10.2146032368
  O         1.9515993447        6.8966663826       10.3860038520
  H         4.5391364569        2.8738975979       10.0243342482
  C         4.8155726511        3.9056168798       10.2198842035
  O         6.8066343883        1.9521024724       10.4226294179
  H         5.8609982896       13.2957269227       10.7760378048
  C         5.5711854388       14.3318480531       10.6273596178
  O         3.5554584981       12.3717936867       10.5018216470
  C         3.1685043694       13.5855852823       10.4738508465
  C         4.2110222311       14.6504272015       10.4392558693
  H         7.5542185384       15.1571260098       10.7710354178
  C         6.4961795858       15.3595270365       10.6259311626
  C         6.1181415540       16.7091428616       10.4396822115
  C         7.1740348541       17.7351214193       10.4368778313
  H         2.7557794171       16.1776139189       10.0932136432
  C         3.8122703407       15.9655675933       10.2411707736
  O         1.9473731577       13.9816182834       10.4942273264
  C         4.7400095456       17.0270067336       10.2345575493
  O         6.8199437258       18.9732820685       10.3823633909
  O         6.8626638670        8.5880169783        0.0611846612
  O         6.8794318828       12.4985151574       20.8125352425
 Zr         0.0400015287       12.9323823978       10.4558328301
 Zr         0.0200018892        7.9480300608       10.4708369203
  O         1.2729337696        9.1453281677       11.7678649972
  O         1.2753809133       11.7573345587        9.1358034077
  O         1.0425459048        9.3475263813        9.2820966339
  O         1.0834998380       11.5610364624       11.6420019261
  H         8.4723354993        8.4615948221       19.0532075752
  H        12.3171440675       12.4198806332       19.0205342904
  H        14.9006642766       13.3202151633       10.1940247617
  C        15.1923164371       14.3574879116       10.3243638399
  O        17.1803370046       12.4037411687       10.4799758084
  C        17.5937283799       13.6207458336       10.4892512732
  C        16.5490548347       14.6827404541       10.5127092369
  H        13.2035265433       15.1700087688       10.1613976560
  C        14.2589503463       15.3779155952       10.3176838556
  C        14.6281386054       16.7246134400       10.5158299251
  C        13.5591489172       17.7435957758       10.4968391949
  H        17.9913437984       16.2170523944       10.8813961426
  C        16.9366092245       16.0006756423       10.7260268052
  O        18.8139621162       13.9915090876       10.4928484787
  C        15.9982817667       17.0503447026       10.7523157288
  O        13.9146630846       18.9796538955       10.5462745743
  C        15.0989692987        6.6175524686       10.5217929997
  O        17.1944691724        8.5347759817       10.4270451073
  C        17.5585214392        7.2888555035       10.4887864482
  C        16.4883733591        6.2772341601       10.5340227144
  H        13.0986198332        5.7892481840       10.5238293741
  C        14.1629162057        5.5640449214       10.5265101037
  C        14.5621792183        4.2348152607       10.5378491283
  C        13.5162254719        3.1731421455       10.5361547552
  H        17.9285136041        4.6951927148       10.5718454657
  C        16.8643303257        4.9152780512       10.5583652629
  O        18.7804285831        6.9081372165       10.4880510706
  H        16.2230347081        2.8505581085       10.5656535025
  C        15.9302988503        3.8961289997       10.5570456689
  O        13.9232306086        1.9585726422       10.5375061857
  O        13.9406882995       12.3601789070        0.0755895647
  O        13.8450751597        8.4416093103       20.7580458093
  O        19.4126202694       11.7822394063       11.8531176760
  O        19.3964294300        9.1163121298        9.0546384928
  O        19.6763064576       11.5009664978        9.3965934941
  O        19.6666054618        9.3909363348       11.5207276807
  O         0.0428813533        6.9600972758        8.4899273262
  O        20.7057215693        6.9011720496       12.3842063791
  H        18.9065547333        8.5762869961        8.4132098280
  H        18.9296031674       12.3155900260       12.5046038758
  O         0.0639280458       13.9393931282       12.4633905291
  O        20.6613075034       14.0119003794        8.5741003002
  O         0.0561053616        8.5903316703        6.8936722570
  O        20.7190209349       12.4304599896        6.9487673774
  O         0.0492797771       12.2671195979       14.0245061533
  O        20.7592628174        8.5177622680       13.9830427810
  O         8.4689799567        6.9656819231        0.1159909110
  O        12.2299000415        6.8535230367       20.9216551776
  O        12.2838444717       13.9386589230        0.0639056767
  O         8.5694601903       14.0196877259       20.7729313754
  O         6.9033583973        0.1110771404        8.4524123256
  O         6.8145216592       20.7718510582       12.3876730715
  O        13.8540847842        0.0954197901       12.4787155206
  O        13.9148423116       20.7661105867        8.5875625962
  C         6.4713239335       21.2339185179       16.0094788262
  C         7.2072565953       20.8420028594       13.6017275840
  C         6.1854867913       20.8433223353       14.6661963808
  H         5.5988454338       21.4774779049       17.9744142303
  C         5.4119305236       21.1962444871       16.9403220363
  C         4.1279304368       20.8020432124       16.5743267565
  C         3.0662622734       20.7819119885       17.6232089978
  O         3.4682040048       20.8354466644       18.8383393884
  H         4.6964399394       20.1593757383       13.2864174927
  C         4.8731802572       20.4533669092       14.3184274766
  H         2.8409432159       20.1142539883       14.9773129935
  C         3.8450719223       20.4295865261       15.2458655645
  O         1.8416978017       20.7350327987       17.2465615418
  H        13.0146626653       -0.3783969196       16.2881820391
  C        14.0586774598       -0.1559779522       16.0756931967
  C        13.4044630684        0.1110416460       13.6788907319
  C        14.4280098712        0.1476705302       14.7699413404
  C        15.0051427871       -0.1884698874       17.1254673679
  C        16.3724482884        0.0895014764       16.8070547125
  C        17.4613023295        0.0122124360       17.8082295487
  O        17.1303747964       -0.0578868040       19.0552935103
  H        16.0407020111        0.7179036363       13.4457373998
  C        15.7706664324        0.4535860546       14.4638292079
  H        17.7562651498        0.6489516624       15.2710319941
  C        16.7135619943        0.4182213702       15.4771285304
  O        18.6755896550       -0.0040599357       17.3877723010
 Zr         2.4785399254        0.0305629101       -0.0486775712
 Zr        18.2832352011       -0.0019389262        0.1086166393
 Zr        -0.0944733078       -0.0707896063       18.3934785503
  H        13.2894894011       21.4480526886        4.8054212687
  C        14.3210610641       21.1739122618        5.0147590810
  C        13.5614330292       20.8318561280        7.3511984968
  C        14.6391388518       20.8200318522        6.3426997446
  H        15.0318794794       21.4790584736        2.9969436109
  C        15.2773987764       21.1884116792        4.0140889823
  C        16.6072911530       20.8467619690        4.3388237576
  C        17.6648018153       20.8754601346        3.2864186643
  O        17.2496497759       20.8935129483        2.0739850731
  C        15.9842759617       20.4553316593        6.6690858761
  H        17.9812637997       20.2359086114        5.8575159474
  C        16.9464509262       20.4901079991        5.6368497638
  O        18.8906496485       20.8965230229        3.6561078676
  H         7.7741100218       -0.0476496063        4.6070074236
  C         6.7183773009        0.0844609226        4.8357980599
  C         7.3539685701        0.1441014453        7.2529388882
  C         6.3316831686        0.2255857289        6.1632300921
  C         5.7735399073        0.1008489852        3.7838660763
  C         4.3904056236        0.2499468109        4.1197973127
  C         3.3035233293        0.1845545237        3.1164788241
  O         3.6335260680        0.1094611541        1.8679112850
  H         4.6865275544        0.5441745168        7.5301667927
  C         4.9716624127        0.4121036763        6.4910258946
  H         2.9760883257        0.5486114509        5.6962682335
  C         4.0325042336        0.4190554415        5.4753882514
  O         2.0879218874        0.1750722704        3.5344902354
 Zr         0.0814596189        0.0802660857        2.5395240025
  H         5.7537199803       18.0854494207       20.0743618664
  C         5.5585954073       17.0602569180       20.3826747015
  O         3.5733842694       18.9744577373       20.7520614051
  C         3.1961704999       17.7505819613       20.7887410860
  C         4.2684302859       16.7094419872       20.7686306461
  C         6.6154071730       16.1216182619       20.3883534728
  C         6.3168232126       14.7886358668       20.8034658123
  C         7.3167642589       13.7028819544       20.8060848543
  H         2.9695275663       15.1402210194       21.4946532470
  C         3.9770734080       15.3925775502       21.1772587235
  O         1.9839591420       17.3445617113       20.8694762389
  H         4.8127751669       13.4389971618       21.5129567493
  C         4.9987002174       14.4600317565       21.1889568273
  H         5.8872815183        2.8995131479        0.3793485744
  C         5.5966952620        3.9381642027        0.2493733990
  O         3.5756001650        1.9814672873       -0.0560481961
  C         3.1824822152        3.2015257924       -0.0168576397
  C         4.2362148932        4.2634240387        0.0543169162
  H         7.5871903644        4.7397797473        0.4272172973
  C         6.5320463175        4.9606679924        0.2836640753
  C         6.1717488967        6.3200659380        0.1318584842
  C         7.2369152403        7.3489217988        0.1182015752
  H         2.7970072523        5.8189485188       -0.2191082296
  C         3.8519755207        5.5908310951       -0.0832454434
  O         1.9592495736        3.5854439501       -0.0566112324
  C         4.7879578587        6.6482959495       -0.0479710200
 Zr        -0.0212860672        2.5244839249       -0.0415167879
 Zr        -0.0045153116       18.4009083574        0.0981052807
  O         1.4471329284       19.5407915838        1.4310540735
  O         1.3381948477        1.3869803873       19.4101559077
  O         0.9914816240       19.8387883458       19.8509571912
  O         1.0507849944        1.0889659074        1.0116324331
  H        14.8946244334        2.8304902108       21.4043494577
  C        15.1426551054        3.8489810492       21.1209034100
  O        17.1662933692        1.9126002177       20.9078778421
  C        17.5415380070        3.1329869661       20.8029723434
  C        16.4690170002        4.1686534633       20.7610304430
  H        13.1708418268        4.6575969825       21.4315383574
  C        14.1958441222        4.8589313463       21.1282315018
  C        14.5168462155        6.1875467353       20.7732381229
  C        13.4619475349        7.2144892245       20.8281244110
  H        17.8405620400        5.6764809115       20.1221362192
  C        16.8085910255        5.4622081724       20.3916999636
  O        18.7560278371        3.5376622319       20.7561282706
  C        15.8557118794        6.5025483570       20.3716481075
  C        15.1126893807       17.0024993312        0.5311455612
  O        17.2018505833       18.9397782111        0.2891549908
  C        17.5640944302       17.6997793915        0.2854748037
  C        16.4884037411       16.6783981707        0.3173848604
  H        13.1085229487       16.1811653313        0.5980744835
  C        14.1657696581       15.9570302222        0.4696431904
  C        14.5489684448       14.6395074746        0.2389461867
  C        13.5139788298       13.5657877028        0.1332508600
  H        17.9067438764       15.1169591657       -0.0345037071
  C        16.8505839692       15.3310804029        0.1095275763
  O        18.7818817077       17.3060668312        0.2248812573
  H        16.1991195616       13.2804895996       -0.0787170610
  C        15.9108827844       14.3154435027        0.0763160826
  O        19.3983651762        1.4506036678        1.4452791974
  O        19.3216713276       19.4378456807       19.5708104713
  O        19.6924382356        1.0128191708       19.8569456062
  O        19.7729691976       19.8861186186        1.1360091490
  H         2.0345004746       19.0094618649        1.9911157123
  H         1.8830734626        1.9426970175       18.8310735019
  O         0.0066026907       17.2446344635       19.0465683033
  O        20.7788032474       17.3600074927        2.0420236651
  H        18.7428544471       18.8667354758       19.0420650715
  H        18.8493676752        2.0229558494        2.0041084832
  O         0.0721839896        3.6616420071        1.8929520468
  O        20.6482542685        3.5363506446       18.8401036375
  O        -0.0581408403       18.7936581538       17.3833970386
  O        20.6095619723        1.8877752809       17.2725797294
  O         0.1610355895        2.0779965568        3.5281242537
  O        20.8278870143       18.9844334322        3.6421856037
  H        20.5564405314        5.7332722703       18.0087670235
  C        20.5940980910        5.5230096599       16.9429129908
  C        20.6109358767        3.1333074395       17.6216467030
  C        20.6040022618        4.1631081005       16.5570822818
  H        20.6315865863        7.5971466615       16.3250903975
  C        20.6402392687        6.5547630108       16.0198990388
  C        20.6996617772        6.2319429919       14.6492566700
  C        20.7325357587        7.2934278332       13.6007106268
  C        20.6549677500        3.8390095267       15.1667999353
  H        20.7417777558        4.6814698922       13.1768696015
  C        20.7051227811        4.9020639591       14.2410754140
  C         0.0584125209       15.1035705673       17.1328732539
  C         0.0009027596       17.5812554786       17.7969151819
  C         0.0482560766       16.4919475202       16.7877170537
  H         0.0774367227       13.0914009650       16.3256171789
  C         0.0902286645       14.1534285116       16.0871524531
  C         0.1166966066       14.5380616253       14.7504428161
  C         0.0908524887       13.5014699403       13.6668166326
  H         0.0914448100       17.9137898161       15.1921245195
  C         0.0891317908       16.8515123328       15.4236235755
  H         0.1589589352       16.1952923774       13.3653721840
  C         0.1257126590       15.9068897520       14.4114385746
  H         0.1877128295        6.0329178073        2.7899565274
  C         0.2050995737        5.7340039294        3.8340679415
  C         0.1540858392        3.2951855114        3.1176435128
  C         0.2139284614        4.3623998631        4.1661879159
  H         0.1838636606        7.7355885476        4.6317960532
  C         0.2045405792        6.6716220840        4.8566118306
  C         0.2121147308        6.3009238787        6.2212063295
  C         0.1140247340        7.3585212165        7.2573341706
  H         0.2703907893        2.9096094943        5.7313136117
  C         0.2519505115        3.9720294469        5.4990828834
  C         0.2575414963        4.9083449410        6.5529157018
  H        20.7209024238       15.0575981050        2.9049543179
  C        20.7476816704       15.3354254262        3.9542499361
  C        20.7885165279       17.7630357249        3.2601005836
  C        20.7753199138       16.6995192471        4.3100028319
  H        20.7174708876       13.3204866171        4.7180087805
  C        20.7471175353       14.3808428799        4.9581120141
  C        20.7689690024       14.7329384352        6.3249987763
  C        20.7244462098       13.6526603895        7.3355515851
  H        20.8338873195       18.1327373553        5.8929701279
  C        20.8028567479       17.0729323796        5.6478045448
  C        20.7986346695       16.1179619557        6.6834366781
  N        20.8665622057       16.5751749276        7.9853640591
  H        20.6214211256       15.8899518022        8.6965147751
  H        20.5588876949       17.5290600293        8.1340718628
  N        20.6235806074        2.5493517401       14.6886829645
  H        20.9838003187        2.3996775976       13.7538574801
  H        20.7765275785        1.8182176019       15.3803893569
  N        10.4271617045        7.8780157286        6.1499770592
  H        10.8361586348        8.0057256939        7.0683805046
  H        10.6175816902        8.5979910392        5.4559998043
  N         9.4549441125       13.1332274682       14.9011445570
  H         8.8674348130       13.0821103516       14.0775770440
  H         9.3430272573       12.4072201622       15.6032453718
  N        16.3994082555       20.0950810192        7.9294937377
  H        17.2286298366       19.5171252629        7.9925978290
  H        15.6805366642       19.9357941090        8.6290401197
  N        16.4603738803       18.3357874997       10.9722649444
  H        15.7444686010       19.0233586495       11.1992391767
  H        17.3199418478       18.4024114601       11.5075980752
  N        16.5161641278       10.8378534749       18.3370800998
  H        17.3705061874       11.3815137653       18.3978131255
  H        15.7927181196       11.0627197140       19.0165316774
  N        16.2787183242        7.7512249653       19.9926189652
  H        15.5789030845        8.4717670040       19.8499543458
  H        17.1226684454        7.8099075342       19.4357710511
  N        14.5661564414       -0.4720345663       18.3968131074
  H        15.2797378991       -0.6202863064       19.1059909680
  H        13.7032198526       -0.9941377785       18.4881588902
  N        14.6227841464        7.9083619251       10.5435716799
  H        13.6652784592        8.0435760573       10.2423920905
  H        15.2928931714        8.6366371401       10.3147744139
  N        14.8133695919       11.3951510163        7.7981532396
  H        15.5361695239       11.6040593662        8.4815183237
  H        14.0034967592       12.0063644451        7.8016665259
  N        14.6558942781       18.2889031929        0.7545151447
  H        13.7894592937       18.3593859796        1.2777055968
  H        15.3741473057       18.9723411280        0.9881444378
  N         6.2278804073       -0.0073971522        2.4918052119
  H         5.5187504181       -0.1606289457        1.7782326794
  H         7.1434123650       -0.4181262523        2.3546971351
  N         4.3134177362        7.9288962246       -0.1691749098
  H         3.3938602346        8.0536360912       -0.5732279792
  H         5.0008244029        8.6663902020       -0.2886553359
  N        10.8576612277        4.3011554252       18.4221333130
  H        11.0084529028        5.0174469514       19.1302805432
  H        11.3512257351        3.4236412829       18.5373064467
  N         9.8948230145       13.1159690299        6.0464817948
  H         9.3403101121       13.0578181754        6.8936746078
  H         9.7047815910       12.4159551539        5.3331756148
  N         5.9344296314        9.6078486210        7.7980844915
  H         6.7527834372        9.0105358453        7.8300744808
  H         5.2215029442        9.4415181525        8.5024804418
  N         6.0611417333        7.8800244794       10.9319656422
  H         5.3408986587        8.5705814495       11.1334204990
  H         6.9191358309        7.9531655570       11.4677510938
  N         7.7184372821       21.6211434417       16.4451213051
  H         8.4339274215       21.7665585458       15.7367736169
  H         7.7490517553       22.2239488869       17.2593365415
  N         7.8740156369       16.5316507546       20.0140322909
  H         8.5852979775       15.8108470921       19.9102580408
  H         7.9313671511       17.3277420294       19.3894098798
  N         4.3497123564       11.2165232039       18.2811069302
  H         5.0823243530       11.4369448725       18.9526645391
  H         3.5145908338       11.7896343647       18.3275548103
  N         4.2653540334       18.3058866756       10.0612751631
  H         3.3704528708       18.3988549156        9.5954890274
  H         4.9611524712       19.0303365906        9.9040743508
  N        -0.0143096091       14.6528625209       18.4326061940
  H         0.1634574116       15.3523528352       19.1513986251
  H         0.2954017948       13.7049681655       18.6079206979
  N         0.3383840993        4.4250368358        7.8392691215
  H         0.0680244418        3.4588862157        7.9779005656
  H         0.1238866738        5.0933315737        8.5745800279
