     498
 i =       64, E =     -4663.8346738850
  H        10.4255329847        5.7037522832        7.6451757043
  C        10.4133006771        5.4752393437        6.5816359589
  O        10.3261678883        3.4933882641        8.4705229206
  C        10.3945701624        3.0886400735        7.2648460393
  C        10.3995424341        4.1399925863        6.1895111665
  C        10.3948951927        6.5353624472        5.6505224318
  C        10.3595057316        6.2178360630        4.2553259218
  C        10.3479532442        7.2693180862        3.2024403833
  O        10.3305525473        8.4989935989        3.5808141765
  H        10.3475746544        2.7816255803        4.5048294412
  C        10.3658318225        3.8228400858        4.8145026115
  O        10.4409819507        1.8531492914        6.8954690043
  H        10.3129907780        4.6306962920        2.8182287237
  C        10.3444394849        4.8534224834        3.8822304687
  O        10.3396653674        6.9026928373        1.9630615950
 Zr        10.3648237856        2.4472278582       10.4612506495
  O        11.6800900333        1.2781067051        9.1455726180
  O         9.2893354741        1.0550666241        9.2860608171
  O         9.0760351127        1.2764868110       11.7781026172
  O        11.4738484095        1.0945119659       11.6524614425
  H         7.4798769878        9.7290465512        5.7290419200
  C         6.4563886328       10.0311963946        5.5145355125
  O         8.4193868474       10.4092795399        3.5598415893
  C         7.1993549327       10.4548444177        3.1786165434
  C         6.1294308723       10.4337245352        4.2251923661
  C         5.4960840347        9.9911322700        6.5509389482
  C         4.1552847019       10.3970739813        6.2447217565
  C         3.0920108570       10.4131409999        7.2738804425
  O         3.4631600628       10.3242251342        8.4974574592
  H         4.5522879796       11.1086701359        2.9050784354
  C         4.8025233442       10.8049607750        3.9171537388
  O         6.8128723004       10.5032978724        1.9549742840
  H         2.8200359221       11.0768449365        4.7147418922
  C         3.8468624669       10.7839518799        4.9218686152
  O         1.8529969689       10.5006323243        6.9005373015
 Zr        10.3904609332       10.4462226310        2.4685897690
  H        13.2790265799       11.1980700495        5.7282986226
  C        14.3127101330       10.9314071473        5.5152620176
  O        12.3585265499       10.5051566411        3.5768545747
  C        13.5749906050       10.4615476193        3.1903573412
  C        14.6491705750       10.5252394260        4.2295071703
  C        15.2727051267       11.0068732802        6.5448196826
  C        16.6218960997       10.6405502415        6.2379674249
  C        17.6814569631       10.6144324161        7.2726109671
  O        17.2676429298       10.6184076553        8.4992240628
  H        16.2370769878        9.8778216223        2.9087821449
  C        15.9839238306       10.1924144958        3.9172928168
  O        13.9642977489       10.3880639305        1.9692225653
  H        17.9769778060        9.9891455741        4.7119664383
  C        16.9423996475       10.2550598838        4.9175908696
  O        18.9166506372       10.5520661232        6.9218656109
 Ta        10.4863783636        0.0658672676        8.1175366358
  O        10.3905985719        3.5341339918       12.4736344665
  O        10.4392505254       12.4115093956        3.5387039443
  O         8.4310951736        3.5317580978       10.4227816759
  O        12.2914862795        3.5410459481       10.5424540451
  O         8.6031192570        0.0510157489        6.9179165463
  O        12.3212455587       20.8504320882        6.9570132701
  O        10.5006914496       19.0326595963        6.9047519714
 Zr         2.4130250103       10.4421053407       10.4472800699
 Zr        18.2317873433       10.4518569464       10.4592633172
 Ta        10.4408043884        8.0812492098        0.1415855187
 Ta        10.2843325581        0.0759817010       12.7967273868
 Ta         0.0700745855       10.5395088613        8.1001548118
 Zr        12.8704255680       10.3650162688        0.0875965449
 Zr         7.9284062854       10.5154856871        0.0700226166
 Zr        12.8387558317        0.0621627910       10.4619273239
 Zr         7.9034221237        0.0363553124       10.4779804701
  O         9.0591031192       19.5230011660        9.0628800423
  O         9.1303892440       11.7969457491        1.2932519356
  O        11.6626784147        9.0886062638        1.3316196156
  O        11.4204380552       19.7882264798        9.4004621847
  O         9.2718595739        9.2934176858        1.1060200649
  O        11.5241986909       11.5931781338        1.1018808737
  H        10.2203879972       15.1865188380        7.5934869285
  C        10.3223642405       15.4217177990        6.5365207142
  O        10.4555317793       17.3567556382        8.4564790462
  C        10.4899258672       17.7969516580        7.2471368379
  C        10.4815821056       16.7530737409        6.1621111482
  C        10.2949852846       14.3684112393        5.5971406506
  C        10.4396333069       14.6883903830        4.2095083006
  C        10.4332149279       13.6374674202        3.1501740356
  H        10.7361648321       18.1115719502        4.4963978521
  C        10.6138186909       17.0734509018        4.7933262254
  H        10.6860533974       16.2734468274        2.7924751484
  C        10.5902063116       16.0487847232        3.8526377933
  O        10.4421858809       13.9989798285        1.9120889811
 Zr        10.3782616563       18.3164693852       10.4608204669
  H         8.4996496214       19.0279133810        8.4432231921
  H        12.2538742544       19.0612992765       12.5046436774
  O        11.7050098032       19.5470507062       11.8689308603
  O         9.3440779337       19.7865615206       11.5317015692
  O        10.3124048861       17.3587981841       12.4690524301
  O        12.3516502418       17.3374322867       10.4440331345
  O         8.4328069968       17.3025549097       10.4855421855
 Ta        10.3613208513       12.7700397804        0.0873413576
  H         9.9475048491        5.7697181013       13.4309381249
  C        10.1578135430        5.4919430710       14.4595720869
  C        10.3710730540        3.1084203577       13.6705633972
  C        10.4019719642        4.1370758003       14.7701152062
  H         9.9988743091        7.4836829755       15.2519325271
  C        10.1877783409        6.4363179930       15.4722222274
  C        10.4569004040        6.0975813586       16.8185039634
  C        10.4663932732        7.1932844541       17.8227820215
  O        10.4373592086        8.4031721478       17.3755835009
  H        10.8810704137        2.7283758423       16.3130608104
  C        10.6794841055        3.7737435023       16.0858833935
  O        10.3371201394        1.8661599773       14.0295574021
  C        10.7179250722        4.7272744573       17.1357922689
  O        10.4757852548        6.8876592819       19.0789794298
  H        13.3464166941        9.7260207523       15.1971483481
  C        14.3874867743        9.9551179348       15.4113234747
  O        12.4102639071       10.3286615041       17.3339138860
  C        13.6291746932       10.3300044194       17.7463121830
  C        14.7191658368       10.2773632598       16.7451808032
  H        15.0716103903        9.6753352925       13.3818357620
  C        15.3369819154        9.9292892120       14.4041802176
  C        16.6764470322       10.2351774512       14.7220287753
  C        17.7047406550       10.2892505250       13.6372484869
  O        17.2504136703       10.3342331241       12.4399576116
  C        16.0818578618       10.5649811163       17.0705651650
  O        13.9675493912       10.3928674322       18.9902477954
  H        18.0784507127       10.7583049154       16.2516956828
  C        17.0365372098       10.5330868342       16.0317642467
  O        18.9415547850       10.3283975097       13.9774357703
 Zr        10.4119027410       10.3927690859       18.3278639274
  H         7.4997834287       10.0288649202       15.1451890566
  C         6.4564879915       10.2398278214       15.3654386445
  O         8.4278225095       10.4325108480       17.3098468453
  C         7.2073436220       10.5156219127       17.7166900163
  C         6.1244920982       10.5265762686       16.7074844620
  H         5.7719338545       10.0051436013       13.3312113194
  C         5.5045993499       10.2174661893       14.3616103811
  C         4.1561773137       10.4700013728       14.6875266675
  C         3.1144820233       10.4437274944       13.6110120337
  O         3.5297368810       10.4540681536       12.4099095306
  C         4.7623475354       10.8137625938       17.0346147086
  O         6.8689956458       10.5657534661       18.9585088631
  H         2.7551751807       10.9545499127       16.2289775307
  C         3.8012399800       10.7603067951       15.9999331173
  O         1.8806401156       10.4290288438       13.9866746014
  O        10.3364137791       12.3903954619       17.3352447862
  O        12.1672109406        0.0532390376       14.0198633372
  O         8.4921628281       20.8849169108       13.9663758435
  O        10.2752451415       19.0351459530       14.0217166099
 Ta         0.0814482906       10.3442357472       12.7979775973
  O        11.7614477285       11.7874312764       19.5269795116
  O         9.0514581443        9.0577794871       19.5399170018
  O        11.4122032660        9.3373249523       19.8201570316
  O         9.3961819263       11.5146607093       19.7819676314
  H         9.7435726518       15.2218610891       13.3420690962
  C         9.9330209029       15.4418616464       14.3904921040
  C        10.2541229386       17.8015068249       13.6754514253
  C        10.1946293052       16.7569424186       14.7589231441
  C         9.9118608901       14.3838811789       15.3290928784
  C        10.2083628190       14.6819900648       16.6988526351
  C        10.3042861503       13.6235408855       17.7427167219
  H        10.6293237843       18.0923514622       16.4069699392
  C        10.4351348731       17.0633524048       16.1169215433
  H        10.6782321680       16.2401262639       18.0919146351
  C        10.4488019689       16.0319963839       17.0489426609
  O        10.3825210965       13.9751625777       18.9763249016
  C         5.6038256858        6.5761134898       10.7225120234
  O         3.5299801955        8.5179207446       10.4317245358
  C         3.1718611649        7.2814238179       10.4328846214
  C         4.2371099314        6.2560750874       10.4635043201
  H         7.5942026423        5.7434430785       10.8898031412
  C         6.5426096801        5.5269058772       10.7136761601
  C         6.1629674274        4.2111082972       10.4708257344
  C         7.2120774691        3.1511289615       10.4427352967
  H         2.8306243567        4.7054348847       10.0170079423
  C         3.8776377918        4.9125542568       10.2237998806
  O         1.9508675971        6.8906473612       10.3890797099
  H         4.5339171328        2.8608495460       10.0336458389
  C         4.8131914205        3.8918848265       10.2287571116
  O         6.8118977715        1.9332353572       10.4210252017
  H         5.8747024828       13.2566812472       10.6323571162
  C         5.5852141938       14.3012044777       10.5636430241
  O         3.5513515234       12.3608760147       10.5017043100
  C         3.1706119476       13.5766485025       10.4819010405
  C         4.2195447565       14.6365210526       10.4646225816
  H         7.5800964487       15.1048516159       10.6475700411
  C         6.5178226654       15.3222100378       10.5736065367
  C         6.1429766868       16.6829030078       10.4867607342
  C         7.2059149861       17.7022682968       10.4759706602
  H         2.7618528356       16.1892890277       10.2916220336
  C         3.8228379613       15.9636486504       10.3698196932
  O         1.9504292963       13.9767648510       10.4980818524
  C         4.7576683487       17.0186071013       10.3796694090
  O         6.8607265404       18.9434227055       10.4345364646
  O         6.9071477057        8.5262841985        0.0643671226
  O         6.9030077919       12.4681186548       20.8175101029
 Zr         0.0475102801       12.9180351699       10.4576089826
 Zr         0.0243902125        7.9532964731       10.4738139013
  O         1.2708999503        9.1441036082       11.7737940865
  O         1.2722013083       11.7429213695        9.1325071551
  O         1.0371827212        9.3451726405        9.2789520056
  O         1.0779026806       11.5488561540       11.6463998900
  H         8.4845682109        8.4427047255       19.0474031995
  H        12.3184595254       12.4055784929       19.0272763585
  H        14.9121510648       13.3198532359       10.1843527530
  C        15.2032177236       14.3568294819       10.3181054416
  O        17.1879113695       12.4010937957       10.4849046345
  C        17.6029361509       13.6177853214       10.4916175348
  C        16.5593441367       14.6811079634       10.5121139406
  H        13.2154358930       15.1708873717       10.1498429385
  C        14.2703891570       15.3776181158       10.3102645934
  C        14.6393231043       16.7237248420       10.5127215413
  C        13.5702257344       17.7424509882       10.4962832362
  H        18.0011272286       16.2143169853       10.8877293976
  C        16.9468307416       15.9985995238       10.7283947073
  O        18.8231084674       13.9875540123       10.4957159160
  C        16.0087980207       17.0487345339       10.7530868929
  O        13.9226013834       18.9784842228       10.5500620526
  C        15.0981151414        6.6172437532       10.5508093176
  O        17.1953405860        8.5359751684       10.4309328889
  C        17.5588497872        7.2893342510       10.4890063095
  C        16.4872973289        6.2768848511       10.5255019460
  H        13.0968367843        5.7909950225       10.5771688609
  C        14.1605736916        5.5646129188       10.5481484754
  C        14.5579626761        4.2348222359       10.5133590061
  C        13.5126954441        3.1711700988       10.5123019437
  H        17.9251192150        4.6928651945       10.4832196518
  C        16.8613626579        4.9145211928       10.5013939080
  O        18.7805378225        6.9090787457       10.4896291195
  H        16.2177277675        2.8508621865       10.4584402390
  C        15.9259735083        3.8962828693       10.4900834114
  O        13.9230605988        1.9574075353       10.4978754970
  O        13.9137528822       12.3721927331        0.1035576033
  O        13.8519140256        8.4314979813       20.7578096933
  O        19.4225401111       11.7746292023       11.8650095127
  O        19.4018086509        9.1175795034        9.0535144958
  O        19.6826868251       11.4895752649        9.3939643462
  O        19.6749579734        9.3976689479       11.5305252868
  O         0.0373000820        6.9629640270        8.4857000960
  O        20.7047400638        6.9051798526       12.3963303577
  H        18.9037139514        8.5658702252        8.4291006393
  H        18.9317174545       12.3190816781       12.5006145836
  O         0.0666086699       13.9281537663       12.4701780526
  O        20.6612305346       13.9922722928        8.5714030952
  O         0.0550519390        8.6003217792        6.8962216349
  O        20.7227400429       12.4048341453        6.9526968173
  O         0.0551939999       12.2457076965       14.0227436881
  O        20.7645225829        8.5329678637       13.9829060821
  O         8.5306201862        6.9202895803        0.1111924851
  O        12.2358596592        6.8468521083       20.9236011318
  O        12.2435512985       13.9355295017        0.0699430546
  O         8.5938399899       13.9868405323       20.8044253252
  O         6.9128022243        0.0650269042        8.4614447272
  O         6.8471179995       20.7660599248       12.4035472620
  O        13.8566170676        0.1104319673       12.4766632415
  O        13.9093002244       20.7267381644        8.5736732240
  C         6.5170227179       21.1788590104       16.0342184980
  C         7.2446027199       20.8320850288       13.6144367559
  C         6.2272007603       20.8224923627       14.6823659198
  H         5.6463366776       21.3935252946       18.0032307605
  C         5.4562978059       21.1360659747       16.9635463818
  C         4.1666078127       20.7688480136       16.5888588664
  C         3.1027637390       20.7443292068       17.6362155407
  O         3.5060328179       20.7801725843       18.8517468119
  H         4.7293285916       20.1840551971       13.2900380047
  C         4.9095238370       20.4563035788       14.3272687080
  H         2.8718623408       20.1334669611       14.9768761596
  C         3.8802559279       20.4279957373       15.2528890395
  O         1.8779078648       20.7121992106       17.2585136834
  H        13.0275899994       -0.3972345067       16.2851192333
  C        14.0690641677       -0.1647583337       16.0707916990
  C        13.4065493008        0.1188998166       13.6754703880
  C        14.4313335839        0.1536419848       14.7665771242
  C        15.0193681973       -0.2009903068       17.1176987963
  C        16.3847906146        0.0891502908       16.7995861572
  C        17.4761166922        0.0127692187       17.8004940588
  O        17.1419295778       -0.0592922116       19.0469167204
  H        16.0382514947        0.7452215669       13.4445747953
  C        15.7721534765        0.4700352353       14.4609124972
  H        17.7592867362        0.6710039096       15.2633789548
  C        16.7188308300        0.4313584084       15.4712324655
  O        18.6919210450        0.0000064524       17.3840057160
 Zr         2.4989728759       -0.0170070521       -0.0416070456
 Zr        18.2979211075       -0.0026325907        0.1004245020
 Zr        -0.0693692776       -0.0869348869       18.3931316237
  H        13.2688452247       21.3884240446        4.7842040447
  C        14.3031068181       21.1271504076        4.9967387850
  C        13.5481665958       20.7930595344        7.3408870462
  C        14.6217221349       20.7812252360        6.3270400371
  H        15.0130037174       21.4384240577        2.9795696156
  C        15.2616695433       21.1524993883        3.9973536985
  C        16.5965260824       20.8299127503        4.3234582435
  C        17.6605874614       20.8745217713        3.2753148938
  O        17.2523010761       20.9049098242        2.0601928645
  C        15.9717857068       20.4322103818        6.6538543429
  H        17.9725312781       20.2368785990        5.8470074626
  C        16.9352680201       20.4775514847        5.6228594657
  O        18.8847014632       20.8939959482        3.6512294108
  H         7.7843431684       -0.0453635632        4.6132938160
  C         6.7273936937        0.0703488469        4.8450365142
  C         7.3638990994        0.1115724869        7.2637838087
  C         6.3410421740        0.1928651917        6.1742827740
  C         5.7808691111        0.0846967092        3.7943714094
  C         4.3959259422        0.2145799253        4.1320219822
  C         3.3096498486        0.1491716787        3.1275104163
  O         3.6410929574        0.0555791343        1.8807712396
  H         4.6928841642        0.4748205279        7.5451127571
  C         4.9787205613        0.3590092166        6.5042687490
  H         2.9805097760        0.4800337150        5.7140577586
  C         4.0380770754        0.3661087193        5.4898879418
  O         2.0922357464        0.1569937399        3.5403991219
 Zr         0.0892276395        0.0646133836        2.5408453353
  H         5.7459689663       18.0407055752       20.0804721957
  C         5.5582160540       17.0163702509       20.3959496839
  O         3.5721175803       18.9207954409       20.7590474048
  C         3.1925501616       17.6974159064       20.7985268162
  C         4.2698498251       16.6598315983       20.7846178152
  C         6.6218827501       16.0857057273       20.4060988561
  C         6.3341013813       14.7533468994       20.8286148529
  C         7.3366886967       13.6697432830       20.8264722868
  H         2.9844675498       15.0854901297       21.5237437068
  C         3.9894817641       15.3437943976       21.2028259022
  O         1.9791951233       17.2941019236       20.8754493408
  H         4.8392959834       13.3981033268       21.5481935684
  C         5.0182184345       14.4185701535       21.2184698208
  H         5.9473670395        2.8389744977        0.3952332564
  C         5.6567690964        3.8767469621        0.2582130020
  O         3.6245904349        1.9210302615       -0.0491883632
  C         3.2382155583        3.1430770390       -0.0106468830
  C         4.2962359227        4.2010747086        0.0590872130
  H         7.6472956953        4.6794752994        0.4346827731
  C         6.5923690352        4.8995942491        0.2882396709
  C         6.2326730306        6.2585188418        0.1295326379
  C         7.2922068693        7.2923534864        0.1162042333
  H         2.8586848014        5.7552192624       -0.2256947798
  C         3.9132787320        5.5274549359       -0.0867356297
  O         2.0169123985        3.5338672576       -0.0517709299
  C         4.8486975465        6.5851227322       -0.0554858437
 Zr         0.0209655274        2.5048123772       -0.0397251368
 Zr        -0.0085524424       18.3809270897        0.0997195719
  O         1.4482668916       19.5050989759        1.4358904847
  O         1.3774911996        1.3497759945       19.4147164894
  O         1.0037297689       19.8052451938       19.8511897380
  O         1.0760401897        1.0558456525        1.0148411480
  H        14.9279915397        2.8204840877       21.3752433233
  C        15.1722611107        3.8427143947       21.1020361017
  O        17.1984133604        1.9160138056       20.8752598426
  C        17.5775071902        3.1371535434       20.7882520631
  C        16.5000760854        4.1713943654       20.7518837561
  H        13.1938795240        4.6343675067       21.4119823735
  C        14.2181813047        4.8465135014       21.1134773466
  C        14.5301314878        6.1808426107       20.7702795224
  C        13.4724115914        7.2057846825       20.8279799987
  H        17.8631410759        5.6948977399       20.1323674677
  C        16.8315775702        5.4702276177       20.3953332697
  O        18.7932837633        3.5385312328       20.7542224988
  C        15.8708945057        6.5047801687       20.3781369750
  C        15.0858304775       17.0189766616        0.5020599130
  O        17.1963103556       18.9470037872        0.2833874488
  C        17.5474174821       17.7036154717        0.2798716789
  C        16.4631045493       16.6882958676        0.3072547033
  H        13.0766505463       16.2082836153        0.5623341272
  C        14.1336297939       15.9765600820        0.4456403173
  C        14.5122326758       14.6535321647        0.2383909835
  C        13.4796846347       13.5742395330        0.1445848564
  H        17.8759983860       15.1150840791       -0.0118491717
  C        16.8196449132       15.3365370543        0.1190868240
  O        18.7628366202       17.3015732252        0.2243324819
  H        16.1619241025       13.2867239331       -0.0456629483
  C        15.8753895033       14.3247346009        0.0912379072
  O        19.4249555991        1.4454099989        1.4398717469
  O        19.3280643002       19.4321232149       19.5678778842
  O        19.7268993615        1.0001026302       19.8560136624
  O        19.7774838459       19.8746493981        1.1347673310
  H         2.0289203715       18.9673776523        1.9968674761
  H         1.9270174954        1.9019514087       18.8366769561
  O         0.0045279250       17.2341328232       19.0468387464
  O        20.7684503057       17.3483321952        2.0453587373
  H        18.7469752886       18.8654553347       19.0368039686
  H        18.8791900590        2.0213188298        1.9983860102
  O         0.1176129905        3.6526697070        1.8888857306
  O        20.7048709440        3.5262255431       18.8474435511
  O        -0.0530674108       18.7805843357       17.3812302684
  O        20.6569697269        1.8836888550       17.2739614082
  O         0.1694937700        2.0720299000        3.5284668789
  O        20.8230002819       18.9711611838        3.6461807760
  H        20.6492529623        5.7327733847       18.0237740048
  C        20.6609022151        5.5251056890       16.9566913462
  C        20.6615596557        3.1284824320       17.6269542169
  C        20.6487386700        4.1655962416       16.5673012878
  H        20.7041733836        7.6017127505       16.3476728453
  C        20.6954861879        6.5610352233       16.0362770772
  C        20.7208706916        6.2443431514       14.6626081672
  C        20.7395028077        7.3028946964       13.6090195677
  C        20.6679530217        3.8483406768       15.1747154730
  H        20.7175911229        4.6976250570       13.1868340078
  C        20.7064506043        4.9148710684       14.2521988138
  C         0.0943471402       15.0895174080       17.1377303672
  C         0.0047510962       17.5681546040       17.7967758292
  C         0.0558770475       16.4770686587       16.7902251570
  H         0.1307315839       13.0755560692       16.3346570472
  C         0.1230932661       14.1369085355       16.0933580340
  C         0.1227704362       14.5184716799       14.7557785552
  C         0.0957195340       13.4837018737       13.6702109653
  H         0.0531490913       17.8952726947       15.1907757073
  C         0.0710996382       16.8337096301       15.4247899457
  H         0.1199318995       16.1735351049       13.3678136068
  C         0.1070334125       15.8872274426       14.4148558069
  H         0.2111237627        6.0304004087        2.7859207529
  C         0.2179060988        5.7324508929        3.8304920342
  C         0.1749453021        3.2889526599        3.1165762932
  C         0.2212011005        4.3603145405        4.1638136189
  H         0.1955082559        7.7361958658        4.6230007164
  C         0.2104857805        6.6728625491        4.8513695255
  C         0.2055802782        6.3068711952        6.2174952633
  C         0.1093702741        7.3651472104        7.2549852554
  H         0.2551561161        2.9127923810        5.7344791408
  C         0.2422965814        3.9744803247        5.4983401367
  C         0.2412365081        4.9136316287        6.5504403834
  H        20.7364824404       15.0415872191        2.9038749615
  C        20.7532876086       15.3182600617        3.9537100860
  C        20.7802514585       17.7493829708        3.2639508837
  C        20.7678552983       16.6827763160        4.3117106044
  H        20.7365309289       13.3013502116        4.7128249575
  C        20.7546219511       14.3613409000        4.9556956580
  C        20.7639722186       14.7100332651        6.3237820721
  C        20.7242985200       13.6310906180        7.3350461359
  H        20.8043806244       18.1121894716        5.8985750389
  C        20.7828084203       17.0529651349        5.6501831720
  C        20.7786589021       16.0955346081        6.6844019703
  N        20.8292495251       16.5521182220        7.9853652521
  H        20.5954019175       15.8650981697        8.6981197166
  H        20.5255115852       17.5068767325        8.1340021632
  N        20.6143275305        2.5614564202       14.6919029002
  H        20.9474710069        2.4134558739       13.7469267337
  H        20.7762994279        1.8254868840       15.3764126670
  N        10.3679499307        7.8259666714        6.1419070645
  H        10.7507618316        7.9527383575        7.0716270616
  H        10.5628156875        8.5530647140        5.4566313265
  N         9.5766470242       13.1329518759       14.8893886938
  H         9.4930730593       12.9714155678       13.8949362833
  H         9.7267378420       12.3519392100       15.5205990252
  N        16.3919995682       20.0783812555        7.9141950220
  H        17.2301571813       19.5136886037        7.9781356537
  H        15.6763759204       19.9148344197        8.6160948297
  N        16.4697168013       18.3339424807       10.9758369509
  H        15.7527273544       19.0215449232       11.1995463372
  H        17.3274908248       18.4008976487       11.5139094855
  N        16.5209765944       10.8534110039       18.3504584124
  H        17.3695190121       11.4061863675       18.4105091650
  H        15.7937974958       11.0741176559       19.0272872638
  N        16.2901082730        7.7573144738       20.0092033344
  H        15.5881288169        8.4762255365       19.8689828821
  H        17.1390715866        7.8242164759       19.4610058475
  N        14.5839512687       -0.5000721265       18.3870187481
  H        15.2997193774       -0.6486359508       19.0938879053
  H        13.7285661329       -1.0354225911       18.4735649977
  N        14.6251062218        7.9085544219       10.6187668469
  H        13.6618774506        8.0514319037       10.3398292869
  H        15.2917698899        8.6385255612       10.3838977057
  N        14.8374994962       11.4108022649        7.7943029236
  H        15.5605609598       11.6182429128        8.4777197188
  H        14.0306987362       12.0260790652        7.7926129885
  N        14.6335195909       18.3114168545        0.7023229304
  H        13.7632976475       18.3931501203        1.2176878908
  H        15.3552079646       18.9907337911        0.9385924068
  N         6.2354541465       -0.0053097398        2.5010640604
  H         5.5280654328       -0.1681650409        1.7879292722
  H         7.1591076688       -0.3957490891        2.3599751104
  N         4.3704515956        7.8629682304       -0.1874966596
  H         3.4531521093        7.9814425501       -0.5985425284
  H         5.0554698103        8.6026459783       -0.3056461346
  N        10.9799070686        4.2953572134       18.4152394223
  H        11.1286811455        5.0151521297       19.1200184212
  H        11.5080837393        3.4361038655       18.5134892615
  N        10.1609838155       13.0818412344        6.0827673799
  H         9.6728199709       12.9970992708        6.9676423757
  H         9.9570448682       12.3735934625        5.3806614908
  N         5.9144728092        9.5819249814        7.7949695092
  H         6.7312455822        8.9826144327        7.8293390744
  H         5.2010573043        9.4214047664        8.5002148712
  N         6.0626790496        7.8646705540       10.9418137151
  H         5.3419587358        8.5551407030       11.1425966803
  H         6.9149052188        7.9344185514       11.4873531341
  N         7.7698356119       21.5370385286       16.4791514258
  H         8.4838880526       21.6992735998       15.7731551702
  H         7.8083818970       22.1145780002       17.3111859466
  N         7.8780018231       16.5026795199       20.0267405402
  H         8.5896469557       15.7832967426       19.9163917411
  H         7.9237774290       17.2881663841       19.3875321797
  N         4.3324892472       11.1146371501       18.3128419400
  H         5.0642454379       11.3402235395       18.9837963801
  H         3.4899529577       11.6759170465       18.3701486718
  N         4.2854762014       18.3087258413       10.3210700697
  H         3.3596899339       18.4365304065        9.9304195261
  H         4.9790582363       19.0326558884       10.1515460022
  N         0.0538154538       14.6398639956       18.4390274156
  H         0.2288034468       15.3433705879       19.1544314299
  H         0.3893413278       13.6999605628       18.6098671944
  N         0.3062122710        4.4305333615        7.8374197150
  H         0.0312346311        3.4656206874        7.9746859479
  H         0.0947999497        5.1018047855        8.5709218725
