     500
 i =      106, E =     -4640.6485537744
  H        10.2950373168        5.8052090926        7.7050225372
  C        10.2505634008        5.5810812285        6.6415587445
  O        10.3297861716        3.5819532024        8.5061746869
  C        10.3097873318        3.1912625498        7.2857532312
  C        10.2265122154        4.2504656033        6.2413585793
  C        10.2249379707        6.6327260565        5.7067773183
  C        10.1806299925        6.2925321837        4.3204728266
  C        10.2493249819        7.3060379787        3.2495490596
  O        10.3188419011        8.5483072719        3.6016461227
  H        10.1136693665        2.8670415575        4.5846566737
  C        10.1477819679        3.9124683751        4.8765295980
  O        10.3822621147        1.9773649401        6.8895155543
  H        10.0797510694        4.7145687953        2.8789263825
  C        10.1257009998        4.9328710149        3.9427579579
  O        10.2719516937        6.9069290573        2.0318563216
 Zr        10.3903457707        2.5366294610       10.4570084531
  H        12.3836272751        1.9820218469        8.5100602014
  O        11.8202772900        1.4292718524        9.0739514522
  O         9.3621966810        1.0631064206        9.4123257039
  H         8.4045750439        1.9868635767       12.4018581190
  O         8.9673634388        1.4336085138       11.8383311558
  O        11.4220319257        1.0706495223       11.5075495432
  H         7.5766812769        9.8479188230        5.8072245155
  C         6.5388520338       10.1025252856        5.6011636376
  O         8.4264631371       10.4385167045        3.5919264410
  C         7.1983931948       10.4135864905        3.2117170430
  C         6.1614439237       10.3934436814        4.2923660879
  C         5.6113246652       10.1234944483        6.6692740369
  C         4.2554662633       10.4616397782        6.3725143265
  C         3.1738897154       10.4948549548        7.3866409502
  O         3.5090194649       10.4533678346        8.6407307251
  H         4.5296445629       10.9219097779        2.9746495270
  C         4.8184294569       10.7044839138        3.9987571602
  O         6.8045665040       10.4393431921        1.9942051225
  H         2.8578195826       10.9826529664        4.8348369469
  C         3.8978705260       10.7375637368        5.0326339458
  O         1.9709843435       10.5614726266        6.9519490283
 Zr        10.3726329672       10.4785667074        2.5070825936
  H        13.1648648420       11.0433869094        5.8673691600
  C        14.2079449775       10.8174425962        5.6530761902
  O        12.3169670191       10.5542860129        3.6194025567
  C        13.5468041363       10.5399418281        3.2526770856
  C        14.5829414097       10.5522240702        4.3362871511
  C        15.1446191381       10.8046793570        6.7103455491
  C        16.5062958622       10.5132209653        6.4003194832
  C        17.6004032198       10.5036168236        7.4062093355
  O        17.2700600651       10.4998672490        8.6621411269
  H        16.2126812959       10.0565851164        3.0052037727
  C        15.9282987563       10.2677701591        4.0320891523
  O        13.9554332278       10.4900146390        2.0390743309
  H        17.9035096737       10.0328322588        4.8485339741
  C        16.8598236609       10.2523449002        5.0573009872
  O        18.7988781483       10.4993448947        6.9589156103
 Zr        10.4292562408        0.0238345969        7.9675400918
  O        10.4433418144        3.5926110815       12.4193205886
  O        10.3902242990       12.4209123402        3.5528195028
  O         8.4436643079        3.6149952607       10.4217519942
  O        12.3396060042        3.6153864163       10.5014475192
  O         8.4819955552        0.1039810408        6.8979557941
  O        12.4129693645       20.8825905729        6.9384029242
  O        10.5063968164       18.9733063029        6.8801222496
  W         2.1984747083       10.4489131314       10.4197393698
  W        18.6047117242       10.4398239447       10.4397678026
 Zr        10.3693387603        7.9479710611        0.0594152252
 Zr        10.3609524377        0.0171188705       12.9345494716
 Zr         0.0069649106       10.5031613179        7.9167178169
 Zr        12.8863209152       10.4387404738        0.0432373439
 Zr         7.9035840720       10.4752290753       -0.0036954087
 Zr        12.8777887960        0.0253105356       10.4988179515
 Zr         7.8896921966        0.0263434031       10.4276381812
  O         8.9976407078       19.5023178430        9.0342659686
  O         8.9761356141       11.8874349146        1.3898898356
  O        11.7797989660        9.0520914620        1.4516612401
  O        11.4361013166       19.8667720923        9.4451360275
  O         9.3339518040        9.4344251725        1.0582630072
  O        11.4290668163       11.4963461090        1.0529359025
  H        10.1936854315       15.1525423024        7.6440385116
  C        10.3342296109       15.3786152191        6.5893569859
  O        10.4794795068       17.3560586551        8.4853951718
  C        10.5133588202       17.7535815157        7.2676321835
  C        10.5312849221       16.7006335698        6.2108848088
  C        10.3080843683       14.3335093887        5.6452888423
  C        10.4949192602       14.6713506744        4.2689667002
  C        10.4464692867       13.6608514951        3.1913211593
  H        10.8736211963       18.0753027964        4.5784468411
  C        10.7187109659       17.0363828354        4.8550295791
  H        10.8294649675       16.2401638168        2.8549696290
  C        10.6979439053       16.0227618518        3.9122703177
  O        10.4413465171       14.0503460953        1.9704492365
 Zr        10.3794203555       18.3918240916       10.4522071175
  H         8.4343672500       18.9516153106        8.4681841187
  H        12.3205374599       18.9420232349       12.4543326132
  O        11.7710978921       19.4956374685       11.8782399160
  O         9.3326771213       19.8645466288       11.4729034141
  O        10.2704153103       17.3490006727       12.4136906067
  O        12.3600128232       17.3007941221       10.4332613366
  O         8.4136052267       17.3032064825       10.4816911010
 Zr        10.4052614454       12.9508416958       -0.0059028728
  H        10.0939002143        5.8557149247       13.3408886507
  C        10.3166529987        5.5858721748       14.3687003315
  C        10.4917681020        3.1924160437       13.6340474017
  C        10.5819253765        4.2404249881       14.6899574882
  H        10.1081692039        7.5678716823       15.1843331931
  C        10.3261035258        6.5222398396       15.3858281054
  C        10.6004968351        6.1683114781       16.7240641844
  C        10.5310226411        7.2336382245       17.7422180449
  O        10.4693648956        8.4499171262       17.3370500099
  H        11.1053099520        2.8238136564       16.2052465704
  C        10.8912819552        3.8693625853       15.9936545913
  O        10.4373850005        1.9721127428       14.0236206432
  C        10.9215007725        4.8130404978       17.0427432939
  O        10.5059250023        6.8788959760       18.9830756242
  H        13.2555842957        9.8925449382       15.1060589853
  C        14.3051394730       10.1062693589       15.2940156301
  O        12.4056063600       10.3353793462       17.3194615471
  C        13.6334108019       10.3618831995       17.6865282874
  C        14.6821672257       10.3629957943       16.6328402782
  H        14.9121977693        9.8981998768       13.2272181758
  C        15.2185467433       10.1150107024       14.2473156186
  C        16.5712308417       10.3894456551       14.5302492175
  C        17.6385726064       10.3875228546       13.4741047554
  O        17.2749493806       10.3935265080       12.2413145652
  C        16.0524208071       10.6477228098       16.9140051052
  O        14.0130160833       10.4063907425       18.9248063885
  H        18.0145729345       10.8572562823       16.0394163911
  C        16.9652589925       10.6519223256       15.8412224444
  O        18.8422148606       10.3809424377       13.9101574666
 Zr        10.4274637237       10.4121410667       18.3780001579
  H         7.6135810501       10.1023699360       15.0266227676
  C         6.5639603951       10.3092905731       15.2221196738
  O         8.4759662226       10.4524504891       17.2322223214
  C         7.2506230730       10.5342350080       17.6089689304
  C         6.1983737664       10.5686242646       16.5619394656
  H         5.9363357745       10.0953061853       13.1640831580
  C         5.6379845307       10.2944151072       14.1890397549
  C         4.2807696075       10.5221619175       14.4902836634
  C         3.2012222324       10.4441101627       13.4510869470
  O         3.5576825598       10.4338148133       12.2151854286
  C         4.8304410468       10.8495752094       16.8584945014
  O         6.8706730822       10.5658089702       18.8414997197
  H         2.8467467194       10.9739630360       16.0096855835
  C         3.8997998974       10.8012175706       15.8000216160
  O         2.0074350849       10.3901481793       13.9016782000
  O        10.3262456117       12.3828026726       17.3247367476
  O        12.2908137306        0.0579672069       14.0237917215
  O         8.4174768793       20.8961752089       13.9739678077
  O        10.2808372263       18.9572791076       14.0287928740
 Zr         0.0303428547       10.3838369385       12.9318591013
  O        11.8246188502       11.8378882958       19.4718543560
  O         8.9967669078        9.0454240754       19.4709454593
  O        11.4294496947        9.4013975053       19.8733810432
  O         9.3783092370       11.4812052638       19.8211642343
  H         9.6839936761       15.1591766636       13.2740155816
  C         9.9013611330       15.3743369397       14.3181325862
  C        10.2397560316       17.7407595085       13.6330644006
  C        10.1901447514       16.6830218604       14.6848905948
  C         9.9037173801       14.3234725075       15.2616042162
  C        10.2382448039       14.6436423656       16.6141050973
  C        10.3188861374       13.6231190490       17.6774589500
  H        10.6999793008       18.0352270717       16.2922474242
  C        10.4816435095       17.0053547022       16.0258238957
  H        10.7644545503       16.1908728608       17.9973447061
  C        10.5092760847       15.9860921379       16.9604298076
  O        10.3953972294       14.0292657221       18.8963187432
  H         8.4106699283       12.4488359544        1.9428339180
  H        12.3294051557        8.4882278797        2.0182296496
  C         5.6359615894        6.7002557351       10.6306453305
  O         3.5201522857        8.6617010917       10.4123549643
  C         3.1856207520        7.4079886057       10.3531111857
  C         4.2751426233        6.4000181043       10.3301801411
  H         7.6124395167        5.8443218134       10.8479268370
  C         6.5673032423        5.6404760887       10.6238142936
  C         6.1864631585        4.3295462704       10.3418226541
  C         7.2172402440        3.2420924902       10.3719147211
  H         2.8751057758        4.8684523809        9.7951987343
  C         3.9174759503        5.0656594270       10.0320886100
  O         1.9874522772        6.9670501930       10.3164054833
  H         4.5588094280        3.0135037543        9.8068719454
  C         4.8439614394        4.0360362242       10.0372459017
  O         6.8085751951        2.0292814229       10.3679868228
  H         5.9207476750       13.1940644579       10.6864503564
  C         5.6051523202       14.2293463360       10.5920497448
  O         3.5220477630       12.2461507116       10.4389099241
  C         3.1638700512       13.4810366478       10.4633940756
  C         4.2343964953       14.5325229117       10.4551683502
  H         7.5845716420       15.0721135086       10.7079288657
  C         6.5207648267       15.2729508123       10.6050372252
  C         6.1339622521       16.6287587421       10.4845936816
  C         7.1852280657       17.6787375400       10.4723696948
  H         2.7689924124       16.0720635620       10.2166105648
  C         3.8290330134       15.8577918989       10.3260578456
  O         1.9615336525       13.9180959737       10.4971766647
  C         4.7452576727       16.9302646241       10.3384334957
  O         6.8113893034       18.9171719370       10.4303746906
  O         6.8101117156        8.5540398727        0.0082310862
  O         6.8067238349       12.4081666454       20.7995026590
 Zr         0.0075044660       12.9232576089       10.5010936174
 Zr         0.0189012914        7.9528906635       10.3812332770
  O         1.2777660104        9.2336056615       11.5900277563
  O         1.2505840790       11.6565781321        9.2702676575
  O         1.2597548193        9.2881407265        9.2129857332
  O         1.2732821379       11.6057449102       11.6479362057
  H         8.4406845094        8.4827265237       18.9095931852
  H        12.3910689616       12.3951288953       18.9155546013
  H        14.8642314371       13.2008610450       10.2312952450
  C        15.1775479472       14.2322462029       10.3631688689
  O        17.2539267353       12.2450869783       10.4907382336
  C        17.6136506324       13.4791326790       10.5357022442
  C        16.5399149077       14.5288153168       10.5637428881
  H        13.2023242950       15.0752670627       10.1737735385
  C        14.2589299573       15.2733472858       10.3379971287
  C        14.6382253191       16.6221648664       10.5215505336
  C        13.5845562877       17.6736482275       10.4877659829
  H        17.9871549965       16.0592181911       10.9327353504
  C        16.9327852645       15.8494912161       10.7697473907
  O        18.8137624395       13.9196524753       10.5492484969
  C        16.0132957543       16.9169225785       10.7660611215
  O        13.9671377649       18.9091763809       10.5329840085
  C        15.1462262807        6.7160046922       10.3410885405
  O        17.2972888728        8.6573330841       10.3974448256
  C        17.6212203284        7.3997095760       10.4210499964
  C        16.5310599004        6.3951629159       10.4826166934
  H        13.1507096890        5.8750548866       10.2705898582
  C        14.2109683729        5.6543543337       10.3743634117
  C        14.6041626345        4.3285358389       10.5393092253
  C        13.5672698725        3.2433195460       10.5388991139
  H        17.9576079170        4.8267490444       10.7873725656
  C        16.8995818474        5.0417780966       10.6651524657
  O        18.8222752289        6.9565700386       10.3897188376
  H        16.2692846488        2.9809217318       10.8327122287
  C        15.9701311737        4.0157454674       10.6940254300
  O        13.9699252981        2.0276960968       10.5506914087
  O        13.9759876030       12.3798149471        0.1035659961
  O        13.9106764640        8.4893276389       20.8010001939
  O        19.5359592029       11.5982900605       11.6562788803
  O        19.5411479612        9.2919247301        9.2239536566
  O        19.5229201074       11.6601627633        9.2768682284
  O        19.5485549428        9.2280782434       11.5985924169
  O        -0.0467062990        6.9674474019        8.4387231200
  O        20.8227278109        6.8554688812       12.2888358811
  O         0.0088348201       13.9356935116       12.4526234625
  O        20.7645057456       14.0403386021        8.6162422788
  O         0.0438421843        8.5713688612        6.8379932112
  O        20.7631857315       12.4958261378        6.9547240451
  O         0.0477793099       12.2982652678       14.0267090141
  O        20.8117677386        8.4289169531       13.9279734000
  O         8.3899391748        6.9194886837        0.1084774954
  O        12.3299420603        6.8549196159       20.9199248092
  O        12.3569282607       13.9846313317        0.1102488620
  O         8.4401855619       13.9907007836       20.6937947658
  O         6.8303033374        0.1082127384        8.4693678572
  O         6.8038122755       20.8202358804       12.3723382757
  O        13.9403294057        0.1026571013       12.4499132238
  O        13.9689065425       20.7702084197        8.5938820974
  C         6.4637975228       21.0590994850       16.0187959795
  C         7.1840126059       20.8187604951       13.5971234269
  C         6.1626513823       20.7516565067       14.6560194390
  H         5.5958158864       21.2465882289       17.9899226280
  C         5.4051977440       21.0125890122       16.9450736683
  C         4.1134096105       20.6755757357       16.5600650524
  C         3.0554049095       20.6773330061       17.6059223466
  O         3.4593075286       20.7291778433       18.8212184236
  H         4.6610028036       20.1651623915       13.2465137055
  C         4.8434120103       20.4046046688       14.2916788777
  H         2.8045090497       20.0843085715       14.9428044669
  C         3.8174559585       20.3615652720       15.2196577142
  O         1.8344685514       20.6579837589       17.2223366023
  H        13.0823715469       -0.3503386110       16.2273425142
  C        14.1321536808       -0.1366329247       16.0391117344
  C        13.5162870440        0.1099869703       13.6599826365
  C        14.5351468535        0.1464852881       14.7393389606
  C        15.0517599244       -0.1574683516       17.1056693976
  C        16.4206638621        0.1090449353       16.7986488871
  C        17.4870507414        0.0234177456       17.8094122958
  O        17.1409720951       -0.0463061807       19.0514908340
  H        16.1632860436        0.6904832050       13.4245125276
  C        15.8786099414        0.4435015192       14.4429908212
  H        17.8472812025        0.6378983483       15.2918623716
  C        16.7982105832        0.4184082146       15.4743690118
  O        18.6998261366       -0.0048677225       17.3924577090
 Zr         2.4718015860       -0.0236144035       -0.0743614936
 Zr        18.2911072357        0.0196822328        0.0937322645
 Zr        -0.0902374173       -0.1043695735       18.3718315290
  H        13.3343509713       21.4154743427        4.8307769339
  C        14.3681206947       21.1408118889        5.0251412182
  C        13.6229359200       20.7980668904        7.3492590890
  C        14.6999469799       20.7661709147        6.3434306851
  H        15.0652365319       21.4898025576        3.0097222357
  C        15.3150597474       21.1782687598        4.0194389480
  C        16.6454084357       20.8365368945        4.3337109259
  C        17.6890975748       20.9072112907        3.2747637818
  O        17.2629453773       20.9463286885        2.0661195137
  C        16.0425995503       20.3918084410        6.6580508544
  H        18.0349509720       20.1911850030        5.8255223982
  C        16.9977325886       20.4484160629        5.6202741546
  O        18.9145233516       20.9440082868        3.6414652227
  H         7.7183421230        0.0063411421        4.6526576189
  C         6.6553430507        0.1141804527        4.8563357365
  C         7.2553768150        0.1504848670        7.2592893452
  C         6.2354192000        0.2271056919        6.1765957794
  C         5.7373038263        0.1269850650        3.7863337073
  C         4.3494555555        0.2484186455        4.1015692646
  C         3.2878857187        0.1698956687        3.0803747246
  O         3.6336627164        0.0629564583        1.8391186409
  H         4.5642705998        0.4957042120        7.5219851571
  C         4.8702653260        0.3866177251        6.4858929955
  H         2.8914836772        0.5038833059        5.6458837479
  C         3.9548106465        0.3947186691        5.4499198927
  O         2.0703353142        0.1774559302        3.4850922275
 Zr         0.0844846139        0.0895884225        2.5137671618
  H         5.6196102514       17.9766256810       19.8943787315
  C         5.4294219191       16.9533571314       20.2115805954
  O         3.5216863994       18.8926555026       20.7445796188
  C         3.1182860790       17.6785086814       20.7569825470
  C         4.1595922821       16.6173663671       20.6662892030
  C         6.4735998103       16.0050404705       20.1747028801
  C         6.1813553023       14.6843928744       20.6345498196
  C         7.2052410336       13.6276381447       20.7044600982
  H         2.8669959951       15.0683113782       21.4451683729
  C         3.8634998836       15.3053060555       21.0843783163
  O         1.9022230463       17.2910194699       20.8701101534
  H         4.6996937166       13.3482686497       21.4099154031
  C         4.8763520659       14.3640157752       21.0643036297
  H         5.8604921339        2.8728304123        0.4038320981
  C         5.5669060932        3.9051793904        0.2363823639
  O         3.5780096838        1.9293043757       -0.1039822595
  C         3.1800496724        3.1460331570       -0.0759407521
  C         4.2143268218        4.2167245512       -0.0093540356
  H         7.5381466927        4.7410940420        0.4574302547
  C         6.4853012731        4.9390254163        0.2733297138
  C         6.1077208883        6.2862832983        0.0726476369
  C         7.1680897617        7.3096181450        0.0725799376
  H         2.7591464613        5.7399445301       -0.3711497908
  C         3.8125485986        5.5334643667       -0.1967715725
  O         1.9575691207        3.5317765717       -0.1215862068
  C         4.7328434779        6.6011557571       -0.1621714199
 Zr         0.0043757085        2.5040356313       -0.0936673281
 Zr        -0.0341952621       18.3932560757        0.1010663074
  O         1.4334825987       19.5150269337        1.4161628492
  O         1.3591445663        1.3361347589       19.3653746647
  O         0.9831729058       19.7944978294       19.8314963303
  O         1.0628314329        1.0639215615        0.9701538300
  H        14.9645869409        2.8714390829       21.3201109646
  C        15.2143608704        3.8902236857       21.0400842676
  O        17.2003982816        1.9482826948       20.8597458418
  C        17.5949946087        3.1607887413       20.7393398727
  C        16.5396091942        4.2085832482       20.6810274903
  H        13.2505388061        4.7089539046       21.3610714793
  C        14.2754937580        4.9040778356       21.0552715774
  C        14.6063788153        6.2324869491       20.7107849005
  C        13.5474514988        7.2503438029       20.8076310577
  H        17.9223571627        5.7092668465       20.0442748910
  C        16.8890296829        5.5013206252       20.3135434482
  O        18.8142194926        3.5482188747       20.6965320622
  C        15.9405485776        6.5467427699       20.3027999801
  C        15.1396350614       17.0186385530        0.6018362889
  O        17.1977094441       18.9735178974        0.2972325840
  C        17.5655710093       17.7372907429        0.3054278206
  C        16.5107617374       16.7070654092        0.3590127046
  H        13.1515936817       16.1655696752        0.6889283806
  C        14.2105279590       15.9618169859        0.5456924540
  C        14.6120104024       14.6543501887        0.2914886423
  C        13.5748647864       13.5951834125        0.1704869623
  H        17.9514994477       15.1749620155       -0.0303940850
  C        16.8949279889       15.3682969044        0.1353327773
  O        18.7832147519       17.3442147614        0.2356929915
  H        16.2656057810       13.3100922187       -0.0672223220
  C        15.9711508234       14.3403479728        0.1073726692
  O        19.4175929047        1.4699232035        1.4051917431
  O        19.3060033419       19.4376931055       19.5683299778
  O        19.7072652972        1.0015320777       19.8248508510
  O        19.7603076902       19.8965429617        1.1291335543
  H         2.0179506587       18.9789163673        1.9743122909
  H         1.9095185686        1.8773960372       18.7783312749
  O        -0.0447652644       17.2367830242       19.0361439604
  O        20.7291553287       17.3911822929        2.0774838158
  H        18.7181037082       18.8680428064       19.0486699294
  H        18.8679090314        2.0485547787        1.9564810936
  O         0.1181052313        3.6608040384        1.8437965047
  O        20.6637840527        3.4856370235       18.7631241706
  O        -0.1094658676       18.7872068283       17.3747021660
  O        20.6583443611        1.8234454132       17.2113127783
  O         0.1662068623        2.0796662881        3.4823417179
  O        20.8246135947       19.0330674573        3.6542347251
  H        20.4925896035        5.6652902624       17.9084189947
  C        20.5733034099        5.4486485213       16.8462566227
  C        20.6440784728        3.0715701922       17.5491280515
  C        20.6387139126        4.0883641902       16.4717494126
  H        20.5681745539        7.5158902454       16.2115036291
  C        20.6198531034        6.4722460337       15.9162128163
  C        20.7401745732        6.1424745692       14.5509552432
  C        20.7962181539        7.2159361383       13.5170586047
  C        20.7448889060        3.7547025441       15.0861808063
  H        20.8868527770        4.5852929424       13.0914601394
  C        20.7988644137        4.8116391048       14.1518957684
  C         0.0095349874       15.1086716180       17.1182600111
  C        -0.0608096735       17.5746331865       17.7900741875
  C        -0.0382209917       16.4951773238       16.7761192820
  H         0.0640525681       13.1050016799       16.2976044055
  C         0.0366771628       14.1681024819       16.0675168619
  C         0.0171277539       14.5636002617       14.7342617182
  C         0.0271098524       13.5257676266       13.6638395716
  H        -0.0820049286       17.9309110545       15.1929654047
  C        -0.0518497842       16.8672825798       15.4149287583
  H        -0.0309450694       16.2221236452       13.3511195884
  C        -0.0242795293       15.9305194004       14.3968620394
  H         0.4967109696        6.0077903065        2.7747061118
  C         0.3158844868        5.7162700111        3.8053546306
  C         0.1480525846        3.2950783122        3.0691469746
  C         0.1278283169        4.3555980339        4.1227269863
  H         0.4297257360        7.7057589825        4.6205216413
  C         0.2764908011        6.6496775128        4.8287722691
  C         0.0434596094        6.2827127746        6.1741679728
  C         0.0117195535        7.3419821347        7.2023783468
  H        -0.2414784783        2.9115417735        5.6543291897
  C        -0.1022993630        3.9681826520        5.4377716321
  C        -0.1608150839        4.9030260432        6.4909700318
  H        20.5703733210       15.1194203537        2.9541355875
  C        20.6591447382       15.3962029545        4.0001519484
  C        20.7618887348       17.8076684656        3.2883030454
  C        20.7518264794       16.7577910937        4.3510850944
  H        20.6037076894       13.3861778867        4.7685346280
  C        20.6784468652       14.4446409229        5.0044436156
  C        20.7832150504       14.7975177163        6.3671307646
  C        20.7715165177       13.7086076900        7.3670183016
  H        20.9379055192       18.1926291697        5.9249758768
  C        20.8564106390       17.1342187786        5.6851429352
  C        20.8734186524       16.1792854270        6.7220847787
  N        21.0250825525       16.6224716569        8.0207002021
  H        20.8065936318       15.9371365420        8.7405072909
  H        20.7654667962       17.5855430049        8.1976916524
  N        20.7671383048        2.4598117741       14.6203880254
  H        21.1697267092        2.3112276432       13.7026735360
  H        20.9134611579        1.7394947009       15.3249519922
  N        10.2151894392        7.9310113728        6.1782535612
  H        10.6061446390        8.0660343914        7.1036171034
  H        10.4290814097        8.6397058129        5.4786561096
  N         9.6161926393       13.0513148353       14.8309265644
  H         9.0724436649       12.9640229161       13.9813984273
  H         9.5047202670       12.3335717657       15.5427296923
  N        16.4523914031       20.0074362298        7.9125350124
  H        17.2728272801       19.4163281389        7.9709084411
  H        15.7317997410       19.8495242966        8.6114964456
  N        16.5012156416       18.1992249412       10.9620920096
  H        15.7900548455       18.9008871757       11.1629698102
  H        17.3484338480       18.2588613293       11.5175075716
  N        16.5406056749       10.8860286432       18.1888459342
  H        17.3798831447       11.4542503379       18.2351474787
  H        15.8320532734       11.0760539299       18.8952278646
  N        16.3510298387        7.8014509754       19.9317750174
  H        15.6433100309        8.5187857413       19.8068559060
  H        17.1847086334        7.8751943155       19.3613114909
  N        14.5878511599       -0.4168593291       18.3737869654
  H        15.2897855635       -0.5663115729       19.0943284537
  H        13.7221192616       -0.9367705491       18.4530527654
  N        14.6858814610        8.0045084524       10.2022302804
  H        13.7763445557        8.1261268194        9.7739409640
  H        15.3819756557        8.7204819703       10.0063069810
  N        14.6960723693       11.0476215487        7.9997578025
  H        15.4271358029       11.2308516376        8.6862977600
  H        13.8779875437       11.6451296219        8.0645416989
  N        14.6735242466       18.2975030741        0.8431960825
  H        13.8137426441       18.3560382599        1.3784633180
  H        15.3846984613       18.9924047010        1.0625243666
  N         6.2175737655        0.0458190368        2.5010312507
  H         5.5242433598       -0.1287204723        1.7766602055
  H         7.1446336156       -0.3434729177        2.3790419195
  N         4.2587209643        7.8772413122       -0.3359522280
  H         3.3648325103        7.9840494480       -0.7992108508
  H         4.9500935387        8.6113074080       -0.4577389052
  N        11.2253832857        4.3780564972       18.3122983644
  H        11.3641593436        5.0928809700       19.0225192691
  H        11.7942609067        3.5421066422       18.3833028680
  N        10.1246776558       13.0461788344        6.1102064603
  H         9.6167795038       12.9640011110        6.9842899494
  H         9.9193328115       12.3516188878        5.3954606316
  N         6.0607736274        9.8450441314        7.9398214800
  H         6.8771891553        9.2485250021        8.0150048760
  H         5.3520937329        9.7203517513        8.6587795710
  N         6.0879738071        7.9835029687       10.8999221615
  H         5.3598692238        8.6649128745       11.1128258845
  H         6.9190357506        8.0351264999       11.4798171638
  N         7.7185865425       21.3809267343       16.4833580420
  H         8.4383782340       21.5404831988       15.7838195673
  H         7.7635713828       21.9239792913       17.3376811049
  N         7.7119233918       16.4009285097       19.7287354511
  H         8.4261911145       15.6854041994       19.6196379684
  H         7.7448965332       17.1905986794       19.0944535549
  N         4.3647599827       11.1273148716       18.1288899959
  H         5.0787678395       11.3292911255       18.8266503322
  H         3.5193597105       11.6851213469       18.1753473723
  N         4.2502280091       18.2112651734       10.2437457112
  H         3.3434782312       18.3155917846        9.8040239756
  H         4.9412744181       18.9433030883       10.0924637652
  N        -0.0151818046       14.6514263234       18.4175154999
  H         0.1689576008       15.3537960492       19.1322387162
  H         0.3330263806       13.7141041419       18.5781183913
  N        -0.3853969984        4.4265979450        7.7640477562
  H        -0.8503412484        3.5287463167        7.8306924016
  H        -0.6097054317        5.1198648674        8.4722380486
