     262
 i =       65, E =     -2820.0258324828
  C         0.0736678422       10.8711975324        8.8637711349
  C        -0.0082314681       12.3542714389        8.7745604985
  C         0.0833513203        6.5611747015        9.2643419350
  C         0.0631419290        8.0561808174        9.1479396497
  C         0.6411010823       10.6159937416       -0.1266118935
  C         0.7078110944        8.1955580772        0.1589220362
  C        10.1619918044        1.2678100340        9.2987736533
  C        10.1527579778       17.7492438234        8.9316540375
  C        10.6255378431        0.6530805374        0.0681894187
  C        10.5906826273       18.1788856234       -0.0292010935
  C        10.8825426053        0.0467095007        9.0808968763
  C         1.3128715336       10.1494523270        8.8630575040
  C         1.2683200349        8.7430916243        9.0356716699
  C        12.3603232538       -0.0033284377        9.0027417318
  C        13.2405826278       15.0112282686       14.0327996575
  C        13.0064065995       14.4758721504        3.8997360608
  C        12.9480671134        4.0846953801       13.8774184776
  C        13.2629688506        3.9463435573        3.6635930697
  C        13.2568724011       13.2928359817       15.9033894261
  C        13.1951576068       12.9887077472        1.9406352479
  C        12.9152900321        5.7278868041       15.7869604516
  C        13.3473239016        5.5779782872        1.7946499904
  C        13.7442502609       15.3812465371       12.7666376370
  C        13.4435652295       14.9878337897        5.1045880931
  C        13.5136274163        3.6648629150       12.6880619949
  C        13.6891032295        3.4313012966        4.9102968800
  C        13.7717709345       13.8289731155       14.6368690967
  C        13.7366631141       13.4849113277        3.2048219022
  C        13.4539372581        5.2529154073       14.4841779037
  C        13.8926334485        5.0350776429        3.0765085281
  C         1.3637880206        9.4161566365        0.0452933977
  C        14.7438621937       14.6433589402       12.1413253748
  C        14.6426792251       14.4850639312        5.6534164334
  C        14.5592076624        4.3824846935       12.0605950957
  C        14.8110034240        4.0606387424        5.5475213384
  C        14.7940435974       13.1057353625       13.9790730839
  C        14.9606199323       12.9840100147        3.7561596048
  C        14.4712299195        5.9882168999       13.8862608980
  C        15.0009543682        5.6514408011        3.7003923893
  C        15.2316272087       15.1134244175       10.8159115877
  C        15.1670638845       15.0457395422        6.9273985380
  C        15.1368664125        3.8236423515       10.8305044723
  C        15.3188394510        3.5932516622        6.8385686373
  C        15.2930815301       13.4971870023       12.7512500666
  C        15.3775115133       13.5028535866        5.0029305312
  C        15.0402772270        5.5927702118       12.6545779243
  C        15.4443243534        5.1549251268        4.9119761021
  C        16.0005248429        9.3565873093       -0.1607001318
  C        17.4689471578        9.3261538491       -0.0828133031
  C        17.7724209518       10.1463649270        8.9919929803
  C        17.7460314700        8.7644516735        9.1140978280
  C        18.1656719074       10.5518937349       -0.1838866547
  C        18.2025147510        8.1087956006        0.0976792376
  C         2.8508871767        9.4388771128        0.0910498861
  C         3.5865121662       13.2742266736       12.5037781852
  C         3.5047675547       13.9661797399        4.6709529135
  C         3.4593326242        5.1814129280       13.4507276908
  C         3.7926211728        5.6950533409        5.7935840314
  C         3.7145893179       14.9503017502       10.5897617168
  C         3.6858748869       15.5343504627        6.5839360357
  C         3.5341815510        3.5713051177       11.5022308549
  C         3.8928087114        4.0218605791        7.6242035908
  C         4.1409593734       12.8233224291       13.7226237824
  C         3.9203171160       13.4491248503        3.4583220205
  C         3.9490084387        5.5723342533       14.6853189924
  C         4.2201053430        6.2360493518        4.5591177247
  C         4.2325169727       14.3655959257       11.8385434191
  C         4.1717532034       15.0505250175        5.2906352556
  C         3.9903957442        4.0201970851       12.8517918750
  C         4.4512957869        4.6204865621        6.3770790569
  C         5.2795264013       13.4116862509       14.2604887510
  C         5.0444234161       14.0226883063        2.8231758780
  C         4.9522244860        4.8399882842       15.3615523412
  C         5.3573378843        5.6359027316        3.9271936359
  C         5.3929631395       14.9371706739       12.4081606124
  C         5.3035327965       15.6425776878        4.6384890079
  C         4.9618809801        3.2656246649       13.5038423904
  C         5.5885757744        4.0471435709        5.7683564739
  C         5.8153552764       12.8961046301       15.5495727359
  C         5.5647533972       13.4487919337        1.5425766700
  C         5.4886955348        5.3904690221       16.6205192439
  C         5.8573939789        6.0893512355        2.6278577343
  C         5.9238366529       14.4792223405       13.5999190099
  C         5.7127038306       15.0965417556        3.3981777925
  C         5.4609981920        3.6402516091       14.7708268146
  C         6.0202467604        4.5592184921        4.5604863500
  C         6.5572729334        0.0200356729        9.2035653675
  C         8.0560557064        0.0128885067        9.1758457795
  C         8.1988622424        0.6646783841        0.3158150047
  C         8.1408598394       18.1623346173        0.2003270976
  C         8.7460224524        1.2107207040        9.3382985228
  C         8.7668418056       17.7132075502        8.9727313244
  C         9.4089011648        1.3461855808        0.2401716890
  C         9.4298258223       15.9987731371       -0.1336948536
  C         9.3757547777       17.4609574798        0.0145295502
  C         9.4097230881        2.8307650979        0.3109152703
  H        10.7223373180       16.8355784053        8.7761461816
  H        10.9242827676       11.0265938858       -0.9788600520
  H        10.9324976756        7.8728746933        0.8193867584
  H        11.5578304310        1.2070997183        0.0103675414
  H        11.5079678917       17.6084948803       -0.1568067073
  H        12.0811396067       14.8241529666        3.4479224718
  H        12.1451659142        3.5330508604       14.3577295722
  H        12.4098435932        3.4977775033        3.1584302365
  H        13.3528550110       16.2642313316       12.2661353513
  H        12.8931211120       15.7590046585        5.6344816993
  H        13.1726684915        2.7539872186       12.2027958582
  H         1.3705472548       17.3973417241        9.4475888082
  H        15.1713658890       12.2148942827       14.4740524385
  H        14.8273911824        6.8897828413       14.3803505334
  H        15.4770253791        6.5040969473        3.2252799554
  H        16.0783661383       12.9428715942       12.2458193268
  H        16.2997110801       13.1479892620        5.4586436792
  H        16.2960367889        5.6044560499        5.4167318794
  H        16.8466099586       10.7179504046        8.9893450206
  H        16.8055332415        8.2258721727        9.1886930971
  H        17.6045865465        1.5158887025        9.5639881530
  H         2.1988433194        8.1780779066        9.0602188964
  H         2.6461308376       13.5433353511        5.1864239382
  H         2.6960029337        5.7531476294       12.9308492950
  H         2.9135526005        6.1033841322        6.2880936863
  H         3.6740197264       11.9974871164       14.2558500589
  H         3.4117029526       12.6116754935        2.9900194647
  H         3.5838085766        6.4772531485       15.1644654153
  H         5.8559822204       15.7624381219       11.8728334280
  H         5.3437318545        2.3701593613       13.0179784315
  H         6.0858427514        3.2087466964        6.2465874572
  H         6.8170048503       14.9184225067       14.0341559156
  H         6.5775786631       15.5145905569        2.8869762118
  H         6.8847511882        4.1372066637        4.0543774263
  H         7.2802233482        1.2305750397        0.4583104648
  H         7.8703271900       11.0378407315        0.7361424848
  H         7.8749587082        7.7110449185       -0.6518487507
  H         8.2221478525       16.7813124787        8.8501361478
  H         8.1797902718        2.1264363348        9.4980149472
  O         0.0089466131       15.2744442289        9.9330916653
  O        -0.1867925827       15.1467864957        7.5093508555
  O        -0.0576863676        3.5740161450       10.3260030289
  O         0.2872742980        3.9040238361        7.9411475818
  O        10.5663382801       15.4032503304       -0.0537565113
  O        10.5184379132        3.4310314368        0.0978996741
  O         1.1122266229       13.0054282599        8.5828481818
  O         1.1634968897        5.9593502518        9.5203568497
  O        11.4481296972       11.4423739595       -0.2698415300
  O        11.4097658831        7.3815481074        0.1261038504
  O        12.0799317814       13.4817722437        1.5120334789
  O        12.3209935481       13.9034184839       16.5315097230
  O        12.3848337187        4.9618545935        1.2324472334
  O        11.8490449640        5.1905229580       16.2473759090
  O        13.0209341831        1.1082714504        9.0253333555
  O        12.9458307815       17.7597502721        8.9146809565
  O        13.1487946126        9.4313198199        1.0717626999
  O        13.1311485160        9.3799150252       16.5428530064
  O        13.8188512653       12.0828254059        1.2921667906
  O        13.7745484989       12.1909094828       16.3272187974
  O        13.8839735078        6.6506880160        1.3466775155
  O        13.5476045904        6.6553390499       16.3835761055
  O        14.5926632237       16.0518106065       10.2554063643
  O        14.5937169500       16.1079426054        7.3659702041
  O        14.6338507335        2.7306280697       10.3782950835
  O        14.7067929134        2.6739740956        7.4665484088
  O        15.2946464951       -0.1106487972       10.1370366284
  O        15.1703287406       -0.0073408082        7.6780273573
  O        15.4062833895       10.4949716611       -0.2137623822
  O        15.3551463366        8.2385369883       -0.1653395851
  O        16.2773153667       14.5328542514       10.3313531561
  O        16.1469272641       14.4578177098        7.4830995977
  O        16.1120749104        4.4321067226       10.2556091673
  O        16.4007204351        4.1421024158        7.3240178343
  O        16.8236511619       16.6883204345        8.8471134768
  O        16.9851643486        2.0328292407        9.0168529135
  O        17.7858084081       12.9436748242        8.9116410520
  O        17.8502879754        5.9570353535        9.0817359817
  O         1.9765239447       16.9142829315        8.8566209709
  O         2.0856937845        2.2169277802        9.2479275239
  O         2.6807445067       14.4222068794       10.0392333234
  O         2.6550177175       14.9303855448        7.1117286329
  O         2.5575189802        4.2214805204       10.9641486444
  O         2.8611097235        4.5619048709        8.1345389386
  O         3.4411487513       10.5579253229       -0.1108589926
  O         3.4629946284        8.3375951434        0.3232882923
  O         3.6194575378       -0.1206428478       10.3177809610
  O         3.7988343123        0.2253241616        7.8909600689
  O         4.3218099348       15.9682898616       10.0940654709
  O         4.2535546616       16.5074803272        7.1743657211
  O         4.1365391728        2.5871235531       10.9753479005
  O         4.4835711502        2.9812097442        8.0836370473
  O         4.9602129920       12.4220977639        1.0686786333
  O         5.2463436845       11.9020873953       16.0989728832
  O         5.2839866244        7.0605911545        2.0264266368
  O         4.9520596366        6.4664226735       17.0818296696
  O         5.7094579438        9.6401626872        1.2786771590
  O         5.6589998721        9.2573150615       16.7874024633
  O         5.9567261853        1.1340714780        9.4078258723
  O         5.9484044321       17.8117552895        9.0131823335
  O         6.5772067122       13.9986686699        1.0048359923
  O         6.8391655069       13.4868817815       16.0452927879
  O         6.8803663075        5.4865829905        2.1167521421
  O         6.4704127662        4.8068469381       17.2039875493
  O         7.4039769360       11.4544485518       -0.0114518433
  O         7.4075474906        7.3779913935        0.1363452902
  O         8.3287450657       15.3638982379       -0.3426475827
  O         8.3037915383        3.4327855814        0.5595138645
  O         9.3335502768       13.1874114965        1.0585404500
  O         9.5731765536       13.1247483244       16.5456545366
  O         9.6132016583        5.6905087287        1.4698575183
  O         9.1995799465        5.6097241023       16.9850800483
 Ti        10.8134413003       13.3644507782       -0.0058648219
 Ti        10.7383162657        5.4570637166        0.0138179952
 Ti        13.3651095395       10.7632181669       -0.2792545848
 Ti        13.3112212959        8.0531170092       -0.0537060018
 Ti         1.3259846527       15.0056020309        8.5216143212
  V         1.3865672587        3.7611641778        9.3905162559
 Ti        15.1045679955        1.2863382604        9.0439002298
 Ti        14.9854516842       17.4831119099        8.7816587919
  V        17.5268865166       15.1479814711        8.8902924088
 Ti        17.6084811693        3.9840916458        8.8469200846
 Ti         3.9064304892        1.4154903368        9.2477875615
 Ti         3.8831267839       17.6104003995        8.9850897001
 Ti         5.4740942135       10.8006910159       -0.0758744952
 Ti         5.5080375409        8.0886717111        0.2071215813
 Ti         8.1145056157       13.3285468977       -0.3284405773
 Ti         8.0629480276        5.4732258518        0.5225941572
  N         3.5223483502        7.2712497749        4.0106757552
  H         3.8718031038        7.6994069190        3.1568950891
  H         2.8013711968        7.7270384653        4.5541479466
  N         6.0010335063       16.6841013390        5.1692612724
  H         6.7549108871       17.1039516782        4.6419419770
  H         5.6792283031       17.1012290308        6.0396236420
  N        15.7401235788       12.0607265011        3.1255219464
  H        15.3937504797       11.6293366229        2.2716539208
  H        16.5340983537       11.6662131624        3.6120784314
  N        13.0049022334        2.3851407033        5.4558942820
  H        12.3474723368        1.8784028630        4.8769431769
  H        13.3744219900        1.9493243655        6.2974031516
  N         6.3797356935        2.8359213303       15.3948410667
  H         6.8701198912        3.2394747674       16.1920686902
  H         6.8627349073        2.1466462574       14.8312898203
  N         2.4848380040       12.6358676559       12.0010455167
  H         1.9550674771       12.0359528782       12.6211676473
  H         2.0092506255       13.0773798483       11.2169622913
  N        12.2973847075       15.7955947631       14.6355232051
  H        11.8451134205       15.4327900483       15.4725754812
  H        11.8279473275       16.5004392800       14.0813663603
  N        15.9954411590        6.3784793265       12.0779342553
  H        16.3885522441        7.1450366767       12.6083228781
  H        16.4846583548        6.0236136306       11.2588912721
  N        10.7788512350        2.4692148896        9.5020191511
  H        10.2215438129        3.3133911235        9.5246426286
  H        11.7827811791        2.5298919797        9.3480074396
  N         2.5331041284       10.7439651685        8.6713680425
  H         2.5699769455       11.7598891284        8.7075322917
  H         3.3604617627       10.2268942341        8.9434523413
  H         1.2971950239        7.2905979196        0.2922057474
  N        17.6071452511        6.8896488882        0.2363009155
  H        16.6009534674        6.8165998042        0.1078208831
  H        18.1790127167        6.0564167746        0.2794126911
  H        17.5735495228       11.4545156711       -0.3153691881
  H         1.1740494671       11.5584965853       -0.2117605094
  N         6.9308149835       17.5363025619        0.3241173390
  H         6.0900370742       18.1000829236        0.2989437490
  H         6.8692555961       16.5522217559        0.0721058356
