     264
 i =      117, E =     -2575.0023809936
  C         0.1143757378       10.8580139884        8.7358438374
  C         0.0665780227       12.3156603976        8.6082227330
  C         0.0295207571        6.6374277473        9.3106451917
  C         0.0521840091        8.1059698829        9.1444276019
  C         0.6313129289       10.5661693320       -0.2068630997
  C         0.7048465668        8.1483334305        0.1306961630
  C        10.1667181445        1.2717601790        9.5321974380
  C        10.1525332288       17.7580919216        9.0745916978
  C        10.6252149829        0.5979475491        0.1271709335
  C        10.5727709890       18.1303844879       -0.0216731514
  C        10.8687398207        0.0562562880        9.2614965368
  C         1.3501523099       10.1364202591        8.7810228629
  C         1.2779188034        8.7473655236        9.0243796753
  C        12.3319933616        0.0050419475        9.1528692209
  C        13.2651308657       14.9976117017       14.0396369009
  C        13.0028106140       14.5047787958        3.7672517178
  C        12.8164270627        4.1484440221       13.7974987862
  C        13.5482158258        3.7544182147        3.5475942928
  C        13.3080468404       13.2953142799       15.9103316944
  C        13.2479760795       12.9691374011        1.8718823135
  C        12.8156630973        5.6701587021       15.7801720133
  C        13.4176142868        5.5255355386        1.8061600979
  C        13.7575289478       15.3688758232       12.7707558860
  C        13.3881875388       15.0535878983        4.9714183138
  C        13.3730044810        3.7806662888       12.5888947084
  C        14.0137559008        3.2429735912        4.7815482440
  C        13.8299976796       13.8354355171       14.6505652521
  C        13.7609985808       13.4943037309        3.1399727395
  C        13.3388806876        5.2808945457       14.4528305033
  C        14.0180366857        4.9624803619        3.0428273300
  C         1.3497389086        9.3738994358        0.0129601555
  C        14.7797212877       14.6530381492       12.1574465295
  C        14.5633285469       14.5654893939        5.5768744841
  C        14.4160174624        4.5213155879       11.9920867905
  C        14.9699043340        4.0313531848        5.4996317376
  C        14.8761570851       13.1369435668       14.0074415452
  C        14.9572438246       13.0036492015        3.7500565093
  C        14.3526304819        6.0459197272       13.8839233236
  C        15.0069787649        5.7040815026        3.7243661154
  C        15.2660826448       15.0997070568       10.8294643223
  C        15.0315778411       15.1674842373        6.8399544820
  C        15.0039508910        3.9728107348       10.7565534286
  C        15.4328013634        3.6443298634        6.8376944656
  C        15.3678295231       13.5331947220       12.7791057848
  C        15.3272038026       13.5618325766        4.9930602514
  C        14.9027850331        5.7054162453       12.6277945868
  C        15.4670621089        5.2254954531        4.9368749193
  C        16.0099481222        9.2972689731       -0.2378087997
  C        17.4742668854        9.2606614600       -0.1772158806
  C        17.7909713584       10.1770671459        8.8747115623
  C        17.7394191518        8.8101419809        9.0553177347
  C        18.1597184092       10.4913758418       -0.2869739094
  C        18.2058171610        8.0478329218        0.0235546471
  C         2.8281069977        9.4012718317        0.1032999946
  C         3.6489104244       13.1469537059       12.3197388885
  C         3.5348182198       13.9750072578        4.5667879123
  C         3.3308524111        4.9684123052       13.8079969462
  C         3.9034445583        5.7939577478        6.1324647182
  C         3.8177853735       14.7908759800       10.3665207401
  C         3.7380800026       15.5789042555        6.4416366297
  C         3.4694048216        3.3756929719       11.8738752129
  C         4.0480175996        4.0964478481        7.9367946476
  C         4.1952387559       12.7087378086       13.5473797191
  C         3.9175617040       13.4450549810        3.3492284330
  C         3.8127426309        5.3877181850       15.0366748474
  C         4.2989988872        6.3485227756        4.8920055358
  C         4.3396336327       14.1802069304       11.6084326190
  C         4.1732601177       15.1072882440        5.1233446638
  C         3.8988199287        3.8177747294       13.2238266265
  C         4.5767349336        4.7094960723        6.6865258846
  C         5.3689351758       13.2620900310       14.0467766370
  C         4.9794540868       14.0608288243        2.6530328031
  C         4.8350697367        4.6909275770       15.7174166212
  C         5.4056955749        5.7442027911        4.2149165132
  C         5.5417176830       14.6991509361       12.1299881506
  C         5.2268775584       15.7528138898        4.4006666576
  C         4.8882397224        3.0929862872       13.8844815444
  C         5.6957942337        4.1442530527        6.0393994744
  C         5.8836851668       12.8255086801       15.3679866910
  C         5.4870605652       13.4495130356        1.3952253463
  C         5.3816037694        5.2785361025       16.9582747384
  C         5.8550063508        6.1672523732        2.8784388101
  C         6.0655440217       14.2586364934       13.3300243766
  C         5.6102810529       15.1925125258        3.1598426240
  C         5.3732229577        3.4948437293       15.1470765931
  C         6.0881699501        4.6664463443        4.8218982424
  C         6.5948443547        0.0106634345        9.3911442604
  C         8.0795270753        0.0124459190        9.3768598829
  C         8.1991161294        0.6323841102        0.3847157244
  C         8.1226438111       18.1403729817        0.2035722905
  C         8.7569787991        1.2089123454        9.5859069988
  C         8.7726719808       17.7180355374        9.1214192288
  C         9.4177594403        1.2976286320        0.3248629663
  C         9.3922237159       15.9796668691       -0.2352664059
  C         9.3470424000       17.4339003657       -0.0139969364
  C         9.4354910999        2.7797723257        0.4144290434
  H        10.7273126102       16.8570005508        8.8788396242
  H        10.9709729250       10.9812798688       -0.9736471764
  H        10.9107792996        7.8870892198        0.9227400411
  H        11.5634840166        1.1418548318        0.0837228007
  H        11.4805401031       17.5500236608       -0.1700998667
  H        12.0975615009       14.8348538022        3.2648579427
  H        12.0161776950        3.5769053038       14.2567781072
  H        12.7869304987        3.2097277274        2.9937692991
  H        13.3366170357       16.2324994457       12.2620945291
  H        12.8152227521       15.8378235472        5.4548861724
  H        13.0300484860        2.8902383524       12.0690526147
  H         1.5854227462        1.6894590187        8.4748525833
  H         1.5475445869       17.1930158110        9.5853207022
  H        15.2764786778       12.2622762177       14.5130196196
  H        14.7182212803        6.9211005353       14.4174476878
  H        15.3593115429        6.6422946823        3.3066454038
  H        16.1734287451       13.0024511541       12.2806161442
  H        16.2324168468       13.2252142180        5.4942072654
  H        16.2111954454        5.7758708379        5.5077482606
  H        16.8810257324       10.7705673066        8.8349204803
  H        16.7969651498        8.2769819049        9.1372040484
  H        17.4319762315        1.7001078104        9.8964749062
  H        17.4852476524       17.4768432060        9.3265196875
  H         2.1920613216        8.1610469627        9.0950549871
  H         2.7297943117       13.5213502008        5.1390353594
  H         2.5527668929        5.5141112360       13.2821325562
  H         3.0407990927        6.2022684289        6.6553062353
  H         3.6863895709       11.9360917359       14.1209915972
  H         3.4410761803       12.5633633650        2.9310317782
  H         3.4285590500        6.2911078455       15.5037299093
  H         6.0369715116       15.4795095557       11.5572717159
  H         5.3002836587        2.2052134770       13.4107944722
  H         6.2101450177        3.3012025676        6.4894346948
  H         6.9869852113       14.6672832287       13.7310019534
  H         6.4257004085       15.6446032631        2.6000899183
  H         6.9339845889        4.2452158640        4.2846769679
  H         7.2896537009        1.2059637184        0.5536229600
  H         7.8702496179       10.9470977769        0.6831332681
  H         7.7906138983        7.6316235117       -0.4789237019
  H         8.2179803681       16.7982350254        8.9608994994
  H         8.1850458602        2.1127804205        9.7825056698
  O         0.1230150651       15.2154855781        9.8028652555
  O        -0.0851620453       15.0669454793        7.3427753640
  O        -0.2308777887        3.7907918052       10.4990459977
  O         0.2902884145        3.9058458205        8.0896423998
  O        10.5049247182       15.3662355422       -0.1177829704
  O        10.5612002754        3.3278331175        0.1139829100
  O         1.1660629029       12.9522880272        8.4051836101
  O         1.1132509558        6.0414124215        9.6494012480
  O        11.5147499203       11.3709265094       -0.2636895228
  O        11.3807551703        7.4821602269        0.1682532139
  O        12.1677856334       13.4749603989        1.4081374208
  O        12.3771905057       13.8958552990       16.5325622840
  O        12.4913521999        4.8228055649        1.2365997222
  O        11.7276643287        5.0742870858       16.1614250397
  O        13.0050820628        1.0956168559        9.1890381198
  O        12.8620208039       17.7376673239        9.0277256941
  O        13.2383952828        9.4207596561        1.0779561660
  O        13.1335847065        9.3393235752       16.5412204875
  O        13.8808770162       12.0254558420        1.2789752891
  O        13.8302653164       12.1817354850       16.3264551766
  O        13.8315656808        6.6498053704        1.3969413123
  O        13.4265324481        6.5265992878       16.4761239342
  O        14.5283800746       15.9964737936       10.2520584627
  O        14.4051966864       16.2391016945        7.2071516597
  O        14.5270323077        2.8713447315       10.3234989568
  O        14.7660296165        2.7995991246        7.5069535106
  O        15.4660558322        0.0454467888       10.1986506100
  O        15.0973611111        0.2119440302        7.6028920547
  O        15.4299425209       10.4366165809       -0.2926574428
  O        15.3563163738        8.1783191602       -0.2176235698
  O        16.3217137646       14.5940692990       10.3548357098
  O        15.9880238199       14.6458563359        7.4794808624
  O        15.9706005117        4.6022256162       10.1819552478
  O        16.5113609824        4.1968960482        7.2997748798
  O        16.9916760881       16.8748392223        8.7409118855
  O        16.9862265937        2.1198174860        9.1385080239
  O        17.8369952831       12.9081287969        8.7425474872
  O        17.8265738739        6.0440057982        9.0783022834
  O         2.0008778090       16.8621645799        8.7891880662
  O         1.9226165110        2.0611840636        9.3133431069
  O         2.7395414503       14.2951370458        9.8646452770
  O         2.7517648895       14.9407687024        7.0024860556
  O         2.5107862609        3.9619546499       11.2878766888
  O         3.0392326891        4.6025081237        8.5035894653
  O         3.4271108691       10.4935511831       -0.2177697380
  O         3.4241513163        8.3377130866        0.4794756770
  O         3.5581961455       -0.4142509986       10.4113573313
  O         3.7959628482        0.1865455546        7.8801944456
  O         4.4406060769       15.7763842707        9.8498628167
  O         4.3024866318       16.5644914628        7.0097256205
  O         4.1420357238        2.3898637808       11.3721190401
  O         4.6798576569        3.0433143170        8.3542747710
  O         4.9516910318       12.3957078278        0.9501266456
  O         5.3689385422       11.8530915236       15.9910572273
  O         5.2568459344        7.1391794786        2.2813597836
  O         4.8393586412        6.3714757725       17.3853871102
  O         5.6481520518        9.6890695830        1.2980737191
  O         5.6025080540        9.0898264582       16.8474145412
  O         6.0297220390        1.1141707094        9.7527238582
  O         5.9906799375       17.8529676801        9.0421474793
  O         6.4851260141       14.0600492870        0.8375772190
  O         6.8762877368       13.5389331338       15.8033812857
  O         6.8330842324        5.5363847720        2.3456279579
  O         6.3620736744        4.7197109449       17.5468000792
  O         7.4071833974       11.2722527325       -0.1133021145
  O         7.3280255164        7.3926670827        0.3471530350
  O         8.2762998227       15.4041547977       -0.5547382545
  O         8.3689955376        3.3957663945        0.7390513185
  O         9.3993608703       13.1254696468        1.1072608822
  O         9.7310433350       12.9457003387       16.4421840488
  O         9.5678492586        5.7195591624        1.7246517952
  O         8.9836017084        5.7064825396       17.1111748617
 Ti        10.7887362459       13.3057442540       -0.0454303788
 Sn        10.8114719460        5.4550875079        0.0801836766
 Ti        13.3898773838       10.7720709967       -0.3104810806
 Ti        13.3324404414        8.0747565933       -0.0490776715
 Ti         1.4103400174       15.0046400790        8.4076033287
 Ti         1.3080632149        4.0196414431        9.6020901105
 Ti        15.0675625586        1.3581737677        9.0308938977
 Sn        14.9751989158       17.4634377631        8.8082418895
 Ti        17.6262360056       14.9216023723        8.7265987706
 Ti        17.5709993206        4.0117083057        8.9689634201
 Sn         3.9225608938        1.4268159374        9.5117627616
 Ti         3.9314270834       17.5834004491        8.9030524261
 Ti         5.4383900973       10.6726332172       -0.1811805999
 Ti         5.4718178589        8.0225870931        0.4049906877
 Sn         8.0162464703       13.2620971104       -0.4154666376
 Ti         8.0739707448        5.4689802731        0.7417716708
  N         3.6263315789        7.4260198759        4.3934735200
  H         3.8607372814        7.7546883131        3.4594456839
  H         2.7787458313        7.7394381351        4.8471733526
  N         5.8686337596       16.8593475907        4.8645497538
  H         6.5889160753       17.2969080063        4.3056527643
  H         5.5822887048       17.2574758706        5.7567563650
  N        15.7556795686       12.0595260254        3.1716819212
  H        15.4096295262       11.5856925268        2.3397182151
  H        16.5004884424       11.6450325956        3.7162754727
  N        13.5257929955        2.0495415731        5.2310368742
  H        13.0339118965        1.4587285746        4.5722351739
  H        13.9338936972        1.6061376670        6.0529887079
  N         6.3114563251        2.7238604654       15.7832745737
  H         6.7927120880        3.1648925469       16.5681504676
  H         6.8263584626        2.0555044265       15.2219508546
  N         2.5023456428       12.5525385280       11.8553982944
  H         1.9336966229       12.0474542967       12.5245142456
  H         2.0339077327       13.0259457644       11.0842039488
  N        12.2997932017       15.7598526864       14.6345667053
  H        11.8532191954       15.3813165043       15.4688916651
  H        11.8014717328       16.4337990890       14.0668419117
  N        15.8491270278        6.5150192105       12.0621167977
  H        16.3013389890        7.2090191528       12.6438798944
  H        16.3414488156        6.1538446758       11.2463155868
  N        10.7938662699        2.4623355719        9.7759944236
  H        10.2377506709        3.3080566594        9.7920914142
  H        11.7882075546        2.5291701987        9.5686813234
  N         2.5739580839       10.7102355858        8.5781605682
  H         2.6217579439       11.7267336470        8.5668473936
  H         3.3952951866       10.1952592421        8.8723183810
  H         1.3009882684        7.2530369966        0.2945631980
  N        17.6186239042        6.8181852981        0.1020367554
  H        16.6035489636        6.7625189323        0.1116332403
  H        18.1711154465        6.0235364382        0.3970384628
  H        17.5598525838       11.3859043579       -0.4352324179
  H         1.1622375697       11.5090953604       -0.2978476670
  N         6.8988402459       17.5261908583        0.3060911535
  H         6.0754440611       18.1150427341        0.2559994303
  H         6.8230090841       16.5782242028       -0.0553533883
