     260
 i =       46, E =     -2787.7655332833
  C         0.1250857229       10.8362603058        8.7424521820
  C         0.0926718846       12.3102941036        8.6556996276
  C         0.0094089233        6.5561667697        9.1944438146
  C         0.0361723317        8.0419133373        9.0525825273
  C         0.6511815726       10.5959177622       -0.1177917314
  C         0.7001231684        8.1731848361        0.1495756275
  C        10.1859401553        1.2558423915        9.3016563865
  C        10.1771567686       17.7368655542        8.9072931198
  C        10.6436269913        0.6474902226        0.0807805287
  C        10.5988293902       18.1742989308       -0.0298050640
  C        10.8989706649        0.0358933557        9.0648266018
  C         1.3484030306       10.0924980253        8.7872119688
  C         1.2637552513        8.6921649553        8.9751765606
  C        12.3707081567       -0.0192336627        8.9735479293
  C        13.2058657165       15.0160892903       14.0675031854
  C        13.0081584152       14.5401196483        3.8286358228
  C        12.8174437986        4.1711972994       13.8198515522
  C        13.2409818529        3.9612955416        3.6109924527
  C        13.2588229994       13.3218993267       15.9528330841
  C        13.1888563692       13.0021001848        1.9210231480
  C        12.8570180559        5.7726925534       15.7529303580
  C        13.3648095733        5.5812753046        1.7392807569
  C        13.6890521050       15.3642339689       12.7884251689
  C        13.4333480446       15.0647965637        5.0305213511
  C        13.3637039496        3.7507492794       12.6242816074
  C        13.6368117219        3.4629366166        4.8735656032
  C        13.7632187681       13.8539204479       14.6856985905
  C        13.7436176873       13.5365505882        3.1592726099
  C        13.3563732619        5.3222619068       14.4302388032
  C        13.8796878864        5.0485362548        3.0313733225
  C         1.3648711432        9.3902133168        0.0531831595
  C        14.6959330643       14.6264563645       12.1769573998
  C        14.6202721461       14.5533026038        5.5925950083
  C        14.4153454966        4.4599159032       11.9972440819
  C        14.7378297389        4.1079535209        5.5282637440
  C        14.7940505921       13.1325619720       14.0416401431
  C        14.9680470843       13.0449988196        3.7119234594
  C        14.3702357253        6.0558285552       13.8275949579
  C        14.9638272106        5.6839706661        3.6756988447
  C        15.1756941827       15.0587466753       10.8461469973
  C        15.1133575649       15.0828441249        6.8807825857
  C        15.0058511389        3.8841103301       10.7921499991
  C        15.2478894615        3.6641195402        6.8277873748
  C        15.2762303829       13.5063015677       12.8047796674
  C        15.3686788062       13.5709365082        4.9574176048
  C        14.9143199219        5.6668126892       12.5842039399
  C        15.3771745166        5.2031818166        4.9022002217
  C        16.0017754648        9.3585243749       -0.1838172639
  C        17.4699827314        9.3194488307       -0.1033435143
  C        17.7995605990       10.1470860168        8.8296015679
  C        17.7356757234        8.7703228836        8.9627764444
  C        18.1756740227       10.5413373679       -0.1862266158
  C        18.1949864282        8.0951898431        0.0689151511
  C         2.8518607741        9.4022795247        0.1136727405
  C         3.7042927092       13.1787909658       12.4504331002
  C         3.5782993294       13.8910697458        4.6463853520
  C         3.4371039799        5.0529731746       13.6447200797
  C         3.8764775553        5.6747951063        5.9060424705
  C         3.8779425512       14.8650187185       10.5658022953
  C         3.7977210013       15.4009546045        6.5801012129
  C         3.5752226878        3.5151623278       11.6663270761
  C         4.0184346132        4.0039740540        7.7216995356
  C         4.2341962808       12.7216831975       13.6765284375
  C         3.9565069040       13.3941730684        3.4155121096
  C         3.9118818223        5.4417827199       14.8834728252
  C         4.2863425860        6.2303320909        4.6734283328
  C         4.3851551935       14.2548632842       11.7950266645
  C         4.2595818886       14.9697601799        5.2592466170
  C         4.0164466913        3.9262510103       13.0250173559
  C         4.5594825733        4.6086399225        6.4781257653
  C         5.3766912553       13.2929021016       14.2198578081
  C         5.0566968107       13.9860303601        2.7596334076
  C         4.9418604457        4.7346873462       15.5439941785
  C         5.4325079846        5.6537212336        4.0377902406
  C         5.5543529649       14.8037851934       12.3680344326
  C         5.3618374053       15.5853324103        4.5838344638
  C         5.0126584811        3.1925293669       13.6619020566
  C         5.7037161193        4.0567116473        5.8643969346
  C         5.8810680597       12.7957896292       15.5229160705
  C         5.5451365920       13.4239153837        1.4687863904
  C         5.4700640123        5.2989968610       16.7978830677
  C         5.9131939523        6.1174023427        2.7366385610
  C         6.0594168068       14.3389283326       13.5646043889
  C         5.7363016263       15.0580763142        3.3256640211
  C         5.4921915123        3.5609438941       14.9381597017
  C         6.1206703097        4.5865200129        4.6597892685
  C         6.5992981189        0.0036854869        9.2065523230
  C         8.0908450213       -0.0022489453        9.1737193427
  C         8.2198713536        0.6706658648        0.3530875305
  C         8.1512356575       18.1703199981        0.2158461045
  C         8.7738328226        1.1959103410        9.3494222860
  C         8.7938772524       17.6991332265        8.9525884705
  C         9.4338072874        1.3460393548        0.2758357278
  C         9.4263889803       15.9993786732       -0.1339150871
  C         9.3800269983       17.4627820445        0.0167099840
  C         9.4433086783        2.8301598330        0.3646588558
  H        10.7525778095       16.8293091951        8.7392252566
  H        10.9220771936       11.0193316527       -0.9799369111
  H        10.9427772495        7.8806926073        0.8256110918
  H        11.5789701518        1.1960154439        0.0186380328
  H        11.5119307915       17.6000842202       -0.1691895629
  H        12.0868391729       14.8792535944        3.3626725313
  H        12.0120970835        3.6303272535       14.3079480754
  H        12.4047196773        3.5025157768        3.0872677721
  H        13.2786108358       16.2269832168       12.2682480292
  H        12.8817353189       15.8404347829        5.5527896457
  H        13.0079995751        2.8467067070       12.1370384338
  H        15.1882967161       12.2599264613       14.5549449580
  H        14.7466877429        6.9445893299       14.3296360870
  H        15.4424008458        6.5371314090        3.2044798972
  H        16.0697034022       12.9599865070       12.3040734831
  H        16.2815837013       13.2159652760        5.4302813548
  H        16.2101041380        5.6615566004        5.4295000130
  H        16.8908575730       10.7430763009        8.7888393258
  H        16.7844229314        8.2473287702        9.0053437535
  H         2.1763219955        8.1028931266        9.0427441810
  H         2.7415714181       13.4578035711        5.1878130152
  H         2.6518562750        5.6021778126       13.1338081783
  H         2.9940094027        6.0652918008        6.4083135126
  H         3.7428990003       11.9123082256       14.2130073517
  H         3.4414453965       12.5587839694        2.9508949089
  H         3.5171963226        6.3260544067       15.3771585833
  H         6.0387108848       15.6171379311       11.8337844998
  H         5.4296114065        2.3228636753       13.1579088209
  H         6.2165730137        3.2239717507        6.3362751596
  H         6.9566203371       14.7564023502       14.0110234391
  H         6.5809010695       15.4887442786        2.7920141937
  H         6.9908872000        4.1858802683        4.1463917503
  H         7.3059282302        1.2395824721        0.5125953582
  H         7.8706280926       11.0266207119        0.7589307885
  H         7.8453061780        7.6642197262       -0.6273027210
  H         8.2441309986       16.7715987266        8.8212887886
  H         8.2021439994        2.1053634895        9.5231067773
  O         0.1725275225       15.1124270379        9.9781069572
  O        -0.0015954029       15.2346890870        7.4738953361
  O        -0.2187567181        3.6703571162       10.4116536877
  O         0.1743563924        3.7799029401        7.9351458650
  O        10.5618433072       15.4031653604       -0.0490601033
  O        10.5407457181        3.4330598558        0.1046539973
  O         1.2019986927       12.9524001005        8.5170048921
  O         1.1133303649        5.9606377760        9.4693474674
  O        11.4462034858       11.4420595289       -0.2753713109
  O        11.4093434976        7.3943761575        0.1216364637
  O        12.0649413274       13.4770033307        1.5052728372
  O        12.3258686041       13.9355694531       16.5814243288
  O        12.4268246075        4.9555031012        1.1465011673
  O        11.7807439767        5.2523997763       16.2063820936
  O        13.0169373025        1.1065724875        8.9543287430
  O        12.9535349977       17.7497378364        8.9128604158
  O        13.1616796715        9.4288693069        1.0657959577
  O        13.1263508243        9.3919180246       16.5331011311
  O        13.8066662511       12.0791757606        1.2933769445
  O        13.7781385959       12.2211226737       16.3729948968
  O        13.8970832545        6.6615622049        1.3084096205
  O        13.5319080114        6.6549502785       16.3706704061
  O        14.5369157566       15.9873104392       10.2565103575
  O        14.5294880980       16.1050111337        7.3699647659
  O        14.5231671268        2.7585249695       10.3706695278
  O        14.6378149956        2.6965933142        7.4267519081
  O        15.2383130410       -0.1346567668       10.1886739100
  O        15.2274607941       -0.0565828040        7.6768365493
  O        15.4094191803       10.4986241590       -0.2195411017
  O        15.3537294550        8.2423054236       -0.2061261904
  O        16.2164467046       14.4695714758       10.3700234359
  O        16.1059396834       14.4765786793        7.4196696996
  O        15.9714831891        4.4844076989       10.2047912065
  O        16.2793864164        4.2480774790        7.3274771914
  O        16.7789595571       16.7398492684        8.8832520830
  O        16.8734678271        2.1126023223        8.9777835121
  O        17.8555504322       12.8985920733        8.7463690295
  O        17.7960246259        5.9607624925        9.0199589211
  O         2.1474076853       16.7883071544        8.8025961620
  O         2.1712968942        2.1059119126        9.3231103532
  O         2.8604482138       14.3490641373        9.9859326055
  O         2.8203156383       14.7556463805        7.1124250645
  O         2.5786524832        4.1495794563       11.1526416378
  O         2.9802629115        4.5528631045        8.2385000456
  O         3.4513235932       10.5091912887       -0.1208189622
  O         3.4543300828        8.3044211648        0.3882108313
  O         3.7178256653       -0.1574824185       10.3948720474
  O         3.8040359985        0.2435526547        7.9222235478
  O         4.4821318546       15.9158035588       10.1151352876
  O         4.3776818618       16.3944575534        7.1685400802
  O         4.2070246617        2.5720302336       11.0879355711
  O         4.6004360129        2.9730948470        8.1915559938
  O         4.9514837809       12.3864277924        1.0111597844
  O         5.3095061161       11.8008771948       16.0694630477
  O         5.3116799443        7.0694235491        2.1332370784
  O         4.9141743333        6.3663477416       17.2564578441
  O         5.7159593877        9.6239247995        1.3002659378
  O         5.6567011976        9.1662072040       16.8213682466
  O         5.9997399613        1.0994555562        9.4674264851
  O         6.0065290291       17.7933079340        8.9559918810
  O         6.5325141645       13.9957700105        0.9030584923
  O         6.8820281541       13.4101019150       16.0292480066
  O         6.9487562608        5.5378124044        2.2277188841
  O         6.4660181769        4.7368362464       17.3766988730
  O         7.4090168802       11.4349439159        0.0037780702
  O         7.4008889197        7.3493578007        0.1813445269
  O         8.3254065340       15.3652401141       -0.3449646916
  O         8.3513876005        3.4298256346        0.6730243095
  O         9.3260586328       13.1832650465        1.0641891321
  O         9.5747680688       13.1237889852       16.5461996918
  O         9.6646724111        5.7099143203        1.5081336287
  O         9.1682425653        5.5965448853       17.0373259464
 Ti        10.8045364754       13.3621866799       -0.0125283862
 Ti        10.7414664797        5.4653335093        0.0184439496
 Ti        13.3641464550       10.7652945504       -0.2730852443
 Ti        13.3108912712        8.0592327672       -0.0768225818
 Ti         1.4794192011       15.0541243084        8.5790598673
 Nb         1.3648191892        3.7962926921        9.4302212811
 Nb        15.1861136911        1.3123814270        9.0020313092
 Ti        15.0288956816       17.4160077629        8.8577616622
 Nb        17.5855888019       15.0516358763        8.8459389200
 Ti        17.5000164411        3.8795605661        8.9072239000
 Ti         3.9157170461        1.4244827247        9.3841956401
 Nb         3.8487650227       17.5527736481        8.9421513724
 Ti         5.4896327517       10.7446080409       -0.0890453062
 Ti         5.4990938988        8.0443382597        0.2801182028
 Ti         8.1113810949       13.3198718791       -0.3162501189
 Ti         8.0873147386        5.4675576379        0.6110493861
  N         3.5760804518        7.2620544106        4.1392125325
  H         3.8791753116        7.6679215782        3.2576685957
  H         2.7990179567        7.6564136319        4.6522322209
  N         6.0515749932       16.6434440054        5.0948367619
  H         6.8765788326       16.9808218887        4.6172771072
  H         5.8176980256       16.9829807030        6.0241837995
  N        15.7579216300       12.1241181575        3.0896796991
  H        15.4051587326       11.6670413449        2.2519099738
  H        16.5369150571       11.7228444620        3.5952280754
  N        12.9388746292        2.4219740682        5.4138807395
  H        12.2951206189        1.9101299361        4.8244131238
  H        13.2908343270        1.9922035339        6.2650270486
  N         6.4338557796        2.7782622424       15.5543866863
  H         6.9063308343        3.1881105061       16.3592561368
  H         6.9454498277        2.1169983665       14.9823668090
  N         2.5915351554       12.5682989666       11.9407335175
  H         2.0384406970       11.9923986778       12.5636549633
  H         2.1302636729       13.0171086393       11.1523914619
  N        12.2576184452       15.7984149748       14.6633682878
  H        11.8211927294       15.4514896441       15.5150920275
  H        11.7758908976       16.4884533880       14.1011331544
  N        15.8658557210        6.4473881792       11.9968617001
  H        16.2791652898        7.2005135827       12.5316072091
  H        16.3488336069        6.0879513861       11.1758832137
  N        10.8032874552        2.4560246647        9.5246205500
  H        10.2409220101        3.2975452745        9.5288395825
  H        11.7989369411        2.5235210204        9.3266874303
  N         2.5799730010       10.6674083899        8.6313890277
  H         2.6279518884       11.6845238837        8.6370004583
  H         3.3973699652       10.1393536857        8.9113842709
  H         1.2821755784        7.2632629663        0.2812426312
  N        17.5933695054        6.8768929495        0.1731300331
  H        16.5835644582        6.8124721693        0.0729361525
  H        18.1571228756        6.0430226922        0.2709425106
  H        17.5904884765       11.4494339646       -0.3117205349
  H         1.1904551232       11.5358694843       -0.1904547553
  N         6.9381699346       17.5494156895        0.3334810491
  H         6.0999219420       18.1174792513        0.3243857992
  H         6.8701042408       16.5690808168        0.0684341125
